dss/import/capas-pablo/Formato-plugin/completo/Red_MT.txt
New Line.IDLinea1_IDTramos_1 bus1=1 bus2=2 length=517.363 units=m r1=0.00048417 r0=0.000629602 x1=0.000315326 x0=0.0017084 c1=0.0117887 c0=0.00367967 enabled=True phases=3
New Line.IDLinea2_IDTramos_2 bus1=2 bus2=3 length=307.326 units=m r1=0.00048417 r0=0.000629602 x1=0.000315326 x0=0.0017084 c1=0.0117887 c0=0.00367967 enabled=True phases=3
New Line.IDLinea3_IDTramos_3 bus1=4 bus2=5 length=43.514 units=m r1=0.000952086 r0=0.00109752 x1=0.00033682 x0=0.00172989 c1=0.0109851 c0=0.00359782 enabled=True phases=3
New Line.IDLinea4_IDTramos_4 bus1=6 bus2=7 length=9.729 units=m r1=0.000952086 r0=0.00109752 x1=0.00033682 x0=0.00172989 c1=0.0109851 c0=0.00359782 enabled=True phases=3
New Line.IDLinea5_IDTramos_5 bus1=8 bus2=9 length=64.12 units=m r1=0.000952086 r0=0.00109752 x1=0.00033682 x0=0.00172989 c1=0.0109851 c0=0.00359782 enabled=True phases=3
New Line.IDLinea6_IDTramos_6 bus1=10 bus2=11 length=31.756 units=m r1=0.000952086 r0=0.00109752 x1=0.00033682 x0=0.00172989 c1=0.0109851 c0=0.00359782 enabled=True phases=3
New Line.IDLinea7_IDTramos_7 bus1=3 bus2=12 length=621.297 units=m r1=0.00048417 r0=0.000629602 x1=0.000315326 x0=0.0017084 c1=0.0117887 c0=0.00367967 enabled=True phases=3
New Line.IDLinea8_IDTramos_8 bus1=13 bus2=14 length=47.359 units=m r1=0.000663124 r0=0.000808557 x1=0.000325502 x0=0.00171857 c1=0.0113939 c0=0.00364045 enabled=True phases=3
New Line.IDLinea16_IDTramos_9 bus1=16 bus2=15 length=244.205 units=m r1=0.00048417 r0=0.000629602 x1=0.000315326 x0=0.0017084 c1=0.0117887 c0=0.00367967 enabled=True phases=3
New Line.IDLinea17_IDTramos_10 bus1=16 bus2=17 length=20.714 units=m r1=0.00048417 r0=0.000629602 x1=0.000315326 x0=0.0017084 c1=0.0117887 c0=0.00367967 enabled=True phases=3
New Line.IDLinea18_IDTramos_11 bus1=18 bus2=19 length=28.91 units=m r1=0.00048417 r0=0.000629602 x1=0.000315326 x0=0.0017084 c1=0.0117887 c0=0.00367967 enabled=True phases=3
New Line.IDLinea28_IDTramos_12 bus1=20 bus2=21 length=41.74 units=m r1=0.000952086 r0=0.00109752 x1=0.00033682 x0=0.00172989 c1=0.0109851 c0=0.00359782 enabled=True phases=3
New Line.IDLinea35_IDTramos_13 bus1=22 bus2=23 length=25.325 units=m r1=0.000952086 r0=0.00109752 x1=0.00033682 x0=0.00172989 c1=0.0109851 c0=0.00359782 enabled=True phases=3
New Line.IDLinea39_IDTramos_14 bus1=26 bus2=24 length=14.565 units=m r1=0.000663124 r0=0.000808557 x1=0.000325502 x0=0.00171857 c1=0.0113939 c0=0.00364045 enabled=True phases=3
New Line.IDLinea39_IDTramos_15 bus1=24 bus2=25 length=14.521 units=m r1=0.000663124 r0=0.000808557 x1=0.000325502 x0=0.00171857 c1=0.0113939 c0=0.00364045 enabled=True phases=3
New Line.IDLinea41_IDTramos_16 bus1=26 bus2=27 length=484.806 units=m r1=0.000663124 r0=0.000808557 x1=0.000325502 x0=0.00171857 c1=0.0113939 c0=0.00364045 enabled=True phases=3
New Line.IDLinea42_IDTramos_17 bus1=28 bus2=29 length=21.831 units=m r1=0.000952086 r0=0.00109752 x1=0.00033682 x0=0.00172989 c1=0.0109851 c0=0.00359782 enabled=True phases=3
New Line.IDLinea54_IDTramos_18 bus1=30 bus2=31 length=17.451 units=m r1=0.00048417 r0=0.000629602 x1=0.000315326 x0=0.0017084 c1=0.0117887 c0=0.00367967 enabled=True phases=3
New Line.IDLinea55_IDTramos_19 bus1=47 bus2=32 length=113.01 units=m r1=0.000663124 r0=0.000808557 x1=0.000325502 x0=0.00171857 c1=0.0113939 c0=0.00364045 enabled=True phases=3
New Line.IDLinea38_IDTramos_20 bus1=33 bus2=34 length=1007.5 units=m r1=0.000663124 r0=0.000808557 x1=0.000325502 x0=0.00171857 c1=0.0113939 c0=0.00364045 enabled=True phases=3
New Line.IDLinea38_IDTramos_21 bus1=34 bus2=35 length=36.421 units=m r1=0.000663124 r0=0.000808557 x1=0.000325502 x0=0.00171857 c1=0.0113939 c0=0.00364045 enabled=True phases=3
New Line.IDLinea38_IDTramos_22 bus1=35 bus2=36 length=74.044 units=m r1=0.000663124 r0=0.000808557 x1=0.000325502 x0=0.00171857 c1=0.0113939 c0=0.00364045 enabled=True phases=3
New Line.IDLinea38_IDTramos_23 bus1=36 bus2=37 length=32.108 units=m r1=0.000663124 r0=0.000808557 x1=0.000325502 x0=0.00171857 c1=0.0113939 c0=0.00364045 enabled=True phases=3
New Line.IDLinea38_IDTramos_24 bus1=37 bus2=38 length=13.867 units=m r1=0.000663124 r0=0.000808557 x1=0.000325502 x0=0.00171857 c1=0.0113939 c0=0.00364045 enabled=True phases=3
New Line.IDLinea38_IDTramos_25 bus1=38 bus2=39 length=12.112 units=m r1=0.000663124 r0=0.000808557 x1=0.000325502 x0=0.00171857 c1=0.0113939 c0=0.00364045 enabled=True phases=3
New Line.IDLinea38_IDTramos_26 bus1=39 bus2=40 length=152.085 units=m r1=0.000663124 r0=0.000808557 x1=0.000325502 x0=0.00171857 c1=0.0113939 c0=0.00364045 enabled=True phases=3
New Line.IDLinea40_IDTramos_27 bus1=41 bus2=42 length=98.152 units=m r1=0.00048417 r0=0.000629602 x1=0.000315326 x0=0.0017084 c1=0.0117887 c0=0.00367967 enabled=True phases=3
New Line.IDLinea56_IDTramos_28 bus1=43 bus2=44 length=394.734 units=m r1=0.000663124 r0=0.000808557 x1=0.000325502 x0=0.00171857 c1=0.0113939 c0=0.00364045 enabled=True phases=3
New Line.IDLinea61_IDTramos_29 bus1=45 bus2=46 length=517.789 units=m r1=0.000952086 r0=0.00109752 x1=0.00033682 x0=0.00172989 c1=0.0109851 c0=0.00359782 enabled=True phases=3
New Line.IDLinea62_IDTramos_30 bus1=47 bus2=48 length=60.185 units=m r1=0.000663124 r0=0.000808557 x1=0.000325502 x0=0.00171857 c1=0.0113939 c0=0.00364045 enabled=True phases=3
New Line.IDLinea9_IDTramos_31 bus1=49 bus2=50 length=340.328 units=m r1=0.000663124 r0=0.000808557 x1=0.000325502 x0=0.00171857 c1=0.0113939 c0=0.00364045 enabled=True phases=3
New Line.IDLinea10_IDTramos_32 bus1=51 bus2=52 length=55.442 units=m r1=0.000952086 r0=0.00109752 x1=0.00033682 x0=0.00172989 c1=0.0109851 c0=0.00359782 enabled=True phases=3
New Line.IDLinea10_IDTramos_33 bus1=52 bus2=53 length=86.575 units=m r1=0.000952086 r0=0.00109752 x1=0.00033682 x0=0.00172989 c1=0.0109851 c0=0.00359782 enabled=True phases=3
New Line.IDLinea10_IDTramos_34 bus1=53 bus2=54 length=366.881 units=m r1=0.000952086 r0=0.00109752 x1=0.00033682 x0=0.00172989 c1=0.0109851 c0=0.00359782 enabled=True phases=3
New Line.IDLinea10_IDTramos_35 bus1=54 bus2=55 length=240.07 units=m r1=0.000952086 r0=0.00109752 x1=0.00033682 x0=0.00172989 c1=0.0109851 c0=0.00359782 enabled=True phases=3
New Line.IDLinea10_IDTramos_36 bus1=55 bus2=56 length=47.772 units=m r1=0.000952086 r0=0.00109752 x1=0.00033682 x0=0.00172989 c1=0.0109851 c0=0.00359782 enabled=True phases=3
New Line.IDLinea10_IDTramos_37 bus1=56 bus2=57 length=43.531 units=m r1=0.000952086 r0=0.00109752 x1=0.00033682 x0=0.00172989 c1=0.0109851 c0=0.00359782 enabled=True phases=3
New Line.IDLinea10_IDTramos_38 bus1=57 bus2=58 length=26.95 units=m r1=0.000952086 r0=0.00109752 x1=0.00033682 x0=0.00172989 c1=0.0109851 c0=0.00359782 enabled=True phases=3
New Line.IDLinea11_IDTramos_39 bus1=59 bus2=60 length=528.272 units=m r1=0.000952086 r0=0.00109752 x1=0.00033682 x0=0.00172989 c1=0.0109851 c0=0.00359782 enabled=True phases=3
New Line.IDLinea12_IDTramos_40 bus1=61 bus2=62 length=53.403 units=m r1=0.00048417 r0=0.000629602 x1=0.000315326 x0=0.0017084 c1=0.0117887 c0=0.00367967 enabled=True phases=3
New Line.IDLinea13_IDTramos_41 bus1=63 bus2=64 length=134.016 units=m r1=0.00048417 r0=0.000629602 x1=0.000315326 x0=0.0017084 c1=0.0117887 c0=0.00367967 enabled=True phases=3
New Line.IDLinea14_IDTramos_42 bus1=65 bus2=66 length=650.112 units=m r1=0.000952086 r0=0.00109752 x1=0.00033682 x0=0.00172989 c1=0.0109851 c0=0.00359782 enabled=True phases=3
New Line.IDLinea15_IDTramos_43 bus1=67 bus2=68 length=51.137 units=m r1=0.000952086 r0=0.00109752 x1=0.00033682 x0=0.00172989 c1=0.0109851 c0=0.00359782 enabled=True phases=3
New Line.IDLinea19_IDTramos_44 bus1=69 bus2=70 length=7.965 units=m r1=0.000952086 r0=0.00109752 x1=0.00033682 x0=0.00172989 c1=0.0109851 c0=0.00359782 enabled=True phases=3
New Line.IDLinea43_IDTramos_45 bus1=71 bus2=72 length=111.277 units=m r1=0.000952086 r0=0.00109752 x1=0.00033682 x0=0.00172989 c1=0.0109851 c0=0.00359782 enabled=True phases=3
New Line.IDLinea99_IDTramos_46 bus1=88 bus2=73 length=48.256 units=m r1=0.000952086 r0=0.00109752 x1=0.00033682 x0=0.00172989 c1=0.0109851 c0=0.00359782 enabled=True phases=3
New Line.IDLinea20_IDTramos_47 bus1=74 bus2=75 length=296.972 units=m r1=0.00048417 r0=0.000629602 x1=0.000315326 x0=0.0017084 c1=0.0117887 c0=0.00367967 enabled=True phases=3
New Line.IDLinea65_IDTramos_48 bus1=76 bus2=77 length=359.608 units=m r1=0.00048417 r0=0.000629602 x1=0.000315326 x0=0.0017084 c1=0.0117887 c0=0.00367967 enabled=True phases=3
New Line.IDLinea65_IDTramos_49 bus1=77 bus2=79 length=87.421 units=m r1=0.00048417 r0=0.000629602 x1=0.000315326 x0=0.0017084 c1=0.0117887 c0=0.00367967 enabled=True phases=3
New Line.IDLinea66_IDTramos_50 bus1=78 bus2=79 length=272.813 units=m r1=0.00048417 r0=0.000629602 x1=0.000315326 x0=0.0017084 c1=0.0117887 c0=0.00367967 enabled=True phases=3
New Line.IDLinea96_IDTramos_51 bus1=80 bus2=81 length=6.43 units=m r1=0.00048417 r0=0.000629602 x1=0.000315326 x0=0.0017084 c1=0.0117887 c0=0.00367967 enabled=True phases=3
New Line.IDLinea22_IDTramos_52 bus1=82 bus2=83 length=6.496 units=m r1=0.000952086 r0=0.00109752 x1=0.00033682 x0=0.00172989 c1=0.0109851 c0=0.00359782 enabled=True phases=3
New Line.IDLinea97_IDTramos_53 bus1=84 bus2=85 length=33.456 units=m r1=0.000952086 r0=0.00109752 x1=0.00033682 x0=0.00172989 c1=0.0109851 c0=0.00359782 enabled=True phases=3
New Line.IDLinea98_IDTramos_54 bus1=86 bus2=87 length=31.231 units=m r1=0.00048417 r0=0.000629602 x1=0.000315326 x0=0.0017084 c1=0.0117887 c0=0.00367967 enabled=True phases=3
New Line.IDLinea100_IDTramos_55 bus1=88 bus2=89 length=42.003 units=m r1=0.000952086 r0=0.00109752 x1=0.00033682 x0=0.00172989 c1=0.0109851 c0=0.00359782 enabled=True phases=3
New Line.IDLinea101_IDTramos_56 bus1=90 bus2=91 length=14.317 units=m r1=0.000952086 r0=0.00109752 x1=0.00033682 x0=0.00172989 c1=0.0109851 c0=0.00359782 enabled=True phases=3
New Line.IDLinea102_IDTramos_57 bus1=92 bus2=93 length=301.571 units=m r1=0.000952086 r0=0.00109752 x1=0.00033682 x0=0.00172989 c1=0.0109851 c0=0.00359782 enabled=True phases=3
New Line.IDLinea103_IDTramos_58 bus1=94 bus2=95 length=236.552 units=m r1=0.000952086 r0=0.00109752 x1=0.00033682 x0=0.00172989 c1=0.0109851 c0=0.00359782 enabled=True phases=3
New Line.IDLinea104_IDTramos_59 bus1=95 bus2=96 length=528.526 units=m r1=0.000952086 r0=0.00109752 x1=0.00033682 x0=0.00172989 c1=0.0109851 c0=0.00359782 enabled=True phases=3
New Line.IDLinea105_IDTramos_60 bus1=97 bus2=98 length=37.297 units=m r1=0.000952086 r0=0.00109752 x1=0.00033682 x0=0.00172989 c1=0.0109851 c0=0.00359782 enabled=True phases=3
New Line.IDLinea106_IDTramos_61 bus1=101 bus2=99 length=29.74 units=m r1=0.000952086 r0=0.00109752 x1=0.00033682 x0=0.00172989 c1=0.0109851 c0=0.00359782 enabled=True phases=3
New Line.IDLinea107_IDTramos_62 bus1=100 bus2=101 length=70.505 units=m r1=0.000663124 r0=0.000808557 x1=0.000325502 x0=0.00171857 c1=0.0113939 c0=0.00364045 enabled=True phases=3
New Line.IDLinea108_IDTramos_63 bus1=102 bus2=103 length=512.092 units=m r1=0.00048417 r0=0.000629602 x1=0.000315326 x0=0.0017084 c1=0.0117887 c0=0.00367967 enabled=True phases=3
New Line.IDLinea23_IDTramos_64 bus1=104 bus2=105 length=5.212 units=m r1=0.000952086 r0=0.00109752 x1=0.00033682 x0=0.00172989 c1=0.0109851 c0=0.00359782 enabled=True phases=3
New Line.IDLinea44_IDTramos_65 bus1=106 bus2=107 length=24.318 units=m r1=0.000952086 r0=0.00109752 x1=0.00033682 x0=0.00172989 c1=0.0109851 c0=0.00359782 enabled=True phases=3
New Line.IDLinea45_IDTramos_66 bus1=108 bus2=109 length=51.729 units=m r1=0.000663124 r0=0.000808557 x1=0.000325502 x0=0.00171857 c1=0.0113939 c0=0.00364045 enabled=True phases=3
New Line.IDLinea109_IDTramos_67 bus1=110 bus2=111 length=40.945 units=m r1=0.00048417 r0=0.000629602 x1=0.000315326 x0=0.0017084 c1=0.0117887 c0=0.00367967 enabled=True phases=3
New Line.IDLinea110_IDTramos_68 bus1=112 bus2=113 length=24.85 units=m r1=0.000952086 r0=0.00109752 x1=0.00033682 x0=0.00172989 c1=0.0109851 c0=0.00359782 enabled=True phases=3
New Line.IDLinea46_IDTramos_69 bus1=108 bus2=114 length=48.055 units=m r1=0.00048417 r0=0.000629602 x1=0.000315326 x0=0.0017084 c1=0.0117887 c0=0.00367967 enabled=True phases=3
New Line.IDLinea46_IDTramos_70 bus1=114 bus2=115 length=21.476 units=m r1=0.00048417 r0=0.000629602 x1=0.000315326 x0=0.0017084 c1=0.0117887 c0=0.00367967 enabled=True phases=3
New Line.IDLinea46_IDTramos_71 bus1=115 bus2=116 length=45.682 units=m r1=0.00048417 r0=0.000629602 x1=0.000315326 x0=0.0017084 c1=0.0117887 c0=0.00367967 enabled=True phases=3
New Line.IDLinea46_IDTramos_72 bus1=116 bus2=117 length=86.441 units=m r1=0.00048417 r0=0.000629602 x1=0.000315326 x0=0.0017084 c1=0.0117887 c0=0.00367967 enabled=True phases=3
New Line.IDLinea46_IDTramos_73 bus1=117 bus2=118 length=173.174 units=m r1=0.00048417 r0=0.000629602 x1=0.000315326 x0=0.0017084 c1=0.0117887 c0=0.00367967 enabled=True phases=3
New Line.IDLinea46_IDTramos_74 bus1=118 bus2=119 length=304.813 units=m r1=0.00048417 r0=0.000629602 x1=0.000315326 x0=0.0017084 c1=0.0117887 c0=0.00367967 enabled=True phases=3
New Line.IDLinea46_IDTramos_75 bus1=119 bus2=120 length=705.193 units=m r1=0.00048417 r0=0.000629602 x1=0.000315326 x0=0.0017084 c1=0.0117887 c0=0.00367967 enabled=True phases=3
New Line.IDLinea47_IDTramos_76 bus1=121 bus2=122 length=55.532 units=m r1=0.000952086 r0=0.00109752 x1=0.00033682 x0=0.00172989 c1=0.0109851 c0=0.00359782 enabled=True phases=3
New Line.IDLinea47_IDTramos_77 bus1=122 bus2=123 length=261.857 units=m r1=0.000952086 r0=0.00109752 x1=0.00033682 x0=0.00172989 c1=0.0109851 c0=0.00359782 enabled=True phases=3
New Line.IDLinea48_IDTramos_78 bus1=125 bus2=124 length=54.196 units=m r1=0.000663124 r0=0.000808557 x1=0.000325502 x0=0.00171857 c1=0.0113939 c0=0.00364045 enabled=True phases=3
New Line.IDLinea49_IDTramos_79 bus1=125 bus2=126 length=29.2 units=m r1=0.000952086 r0=0.00109752 x1=0.00033682 x0=0.00172989 c1=0.0109851 c0=0.00359782 enabled=True phases=3
New Line.IDLinea50_IDTramos_80 bus1=29 bus2=127 length=21.996 units=m r1=0.000663124 r0=0.000808557 x1=0.000325502 x0=0.00171857 c1=0.0113939 c0=0.00364045 enabled=True phases=3
New Line.IDLinea51_IDTramos_81 bus1=128 bus2=129 length=328.627 units=m r1=0.000952086 r0=0.00109752 x1=0.00033682 x0=0.00172989 c1=0.0109851 c0=0.00359782 enabled=True phases=3
New Line.IDLinea52_IDTramos_82 bus1=131 bus2=130 length=362.378 units=m r1=0.000663124 r0=0.000808557 x1=0.000325502 x0=0.00171857 c1=0.0113939 c0=0.00364045 enabled=True phases=3
New Line.IDLinea53_IDTramos_83 bus1=131 bus2=132 length=57.043 units=m r1=0.000663124 r0=0.000808557 x1=0.000325502 x0=0.00171857 c1=0.0113939 c0=0.00364045 enabled=True phases=3
New Line.IDLinea111_IDTramos_84 bus1=133 bus2=134 length=59.324 units=m r1=0.000952086 r0=0.00109752 x1=0.00033682 x0=0.00172989 c1=0.0109851 c0=0.00359782 enabled=True phases=3
New Line.IDLinea112_IDTramos_85 bus1=135 bus2=136 length=48.968 units=m r1=0.000952086 r0=0.00109752 x1=0.00033682 x0=0.00172989 c1=0.0109851 c0=0.00359782 enabled=True phases=3
New Line.IDLinea114_IDTramos_86 bus1=137 bus2=138 length=26.024 units=m r1=0.000952086 r0=0.00109752 x1=0.00033682 x0=0.00172989 c1=0.0109851 c0=0.00359782 enabled=True phases=3
New Line.IDLinea122_IDTramos_87 bus1=139 bus2=140 length=31.224 units=m r1=0.000952086 r0=0.00109752 x1=0.00033682 x0=0.00172989 c1=0.0109851 c0=0.00359782 enabled=True phases=3
New Line.IDLinea57_IDTramos_88 bus1=144 bus2=141 length=870.915 units=m r1=0.00131006 r0=0.0014555 x1=0.000346644 x0=0.00173971 c1=0.0106534 c0=0.00356164 enabled=True phases=3
New Line.IDLinea24_IDTramos_89 bus1=142 bus2=143 length=186.25 units=m r1=0.000663124 r0=0.000808557 x1=0.000325502 x0=0.00171857 c1=0.0113939 c0=0.00364045 enabled=True phases=3
New Line.IDLinea58_IDTramos_90 bus1=144 bus2=145 length=658.953 units=m r1=0.000663124 r0=0.000808557 x1=0.000325502 x0=0.00171857 c1=0.0113939 c0=0.00364045 enabled=True phases=3
New Line.IDLinea59_IDTramos_91 bus1=47 bus2=146 length=11.123 units=m r1=0.000663124 r0=0.000808557 x1=0.000325502 x0=0.00171857 c1=0.0113939 c0=0.00364045 enabled=True phases=3
New Line.IDLinea59_IDTramos_92 bus1=146 bus2=147 length=30.397 units=m r1=0.000663124 r0=0.000808557 x1=0.000325502 x0=0.00171857 c1=0.0113939 c0=0.00364045 enabled=True phases=3
New Line.IDLinea59_IDTramos_93 bus1=147 bus2=148 length=726.186 units=m r1=0.000663124 r0=0.000808557 x1=0.000325502 x0=0.00171857 c1=0.0113939 c0=0.00364045 enabled=True phases=3
New Line.IDLinea124_IDTramos_94 bus1=149 bus2=150 length=152.651 units=m r1=0.000663124 r0=0.000808557 x1=0.000325502 x0=0.00171857 c1=0.0113939 c0=0.00364045 enabled=True phases=3
New Line.IDLinea125_IDTramos_95 bus1=151 bus2=152 length=9.286 units=m r1=0.00048417 r0=0.000629602 x1=0.000315326 x0=0.0017084 c1=0.0117887 c0=0.00367967 enabled=True phases=3
New Line.IDLinea125_IDTramos_96 bus1=152 bus2=153 length=552.06 units=m r1=0.00048417 r0=0.000629602 x1=0.000315326 x0=0.0017084 c1=0.0117887 c0=0.00367967 enabled=True phases=3
New Line.IDLinea25_IDTramos_97 bus1=142 bus2=154 length=17.192 units=m r1=0.00048417 r0=0.000629602 x1=0.000315326 x0=0.0017084 c1=0.0117887 c0=0.00367967 enabled=True phases=3
New Line.IDLinea25_IDTramos_98 bus1=154 bus2=156 length=224.597 units=m r1=0.00048417 r0=0.000629602 x1=0.000315326 x0=0.0017084 c1=0.0117887 c0=0.00367967 enabled=True phases=3
New Line.IDLinea126_IDTramos_99 bus1=164 bus2=155 length=52.451 units=m r1=0.000663124 r0=0.000808557 x1=0.000325502 x0=0.00171857 c1=0.0113939 c0=0.00364045 enabled=True phases=3
New Line.IDLinea26_IDTramos_100 bus1=156 bus2=176 length=1032.359 units=m r1=0.000352234 r0=0.000497666 x1=0.000305055 x0=0.00169813 c1=0.0122161 c0=0.00372013 enabled=True phases=3
New Line.IDLinea60_IDTramos_101 bus1=43 bus2=157 length=58.39 units=m r1=0.000663124 r0=0.000808557 x1=0.000325502 x0=0.00171857 c1=0.0113939 c0=0.00364045 enabled=True phases=3
New Line.IDLinea113_IDTramos_102 bus1=158 bus2=159 length=219.905 units=m r1=0.000952086 r0=0.00109752 x1=0.00033682 x0=0.00172989 c1=0.0109851 c0=0.00359782 enabled=True phases=3
New Line.IDLinea113_IDTramos_103 bus1=159 bus2=160 length=86.937 units=m r1=0.000952086 r0=0.00109752 x1=0.00033682 x0=0.00172989 c1=0.0109851 c0=0.00359782 enabled=True phases=3
New Line.IDLinea127_IDTramos_104 bus1=161 bus2=162 length=30.456 units=m r1=0.00131006 r0=0.0014555 x1=0.000346644 x0=0.00173971 c1=0.0106534 c0=0.00356164 enabled=True phases=3
New Line.IDLinea131_IDTramos_105 bus1=163 bus2=164 length=28.505 units=m r1=0.000663124 r0=0.000808557 x1=0.000325502 x0=0.00171857 c1=0.0113939 c0=0.00364045 enabled=True phases=3
New Line.IDLinea132_IDTramos_106 bus1=165 bus2=166 length=34.36 units=m r1=0.00048417 r0=0.000629602 x1=0.000315326 x0=0.0017084 c1=0.0117887 c0=0.00367967 enabled=True phases=3
New Line.IDLinea133_IDTramos_107 bus1=167 bus2=168 length=99.141 units=m r1=0.00048417 r0=0.000629602 x1=0.000315326 x0=0.0017084 c1=0.0117887 c0=0.00367967 enabled=True phases=3
New Line.IDLinea134_IDTramos_108 bus1=169 bus2=170 length=746.199 units=m r1=0.000663124 r0=0.000808557 x1=0.000325502 x0=0.00171857 c1=0.0113939 c0=0.00364045 enabled=True phases=3
New Line.IDLinea135_IDTramos_109 bus1=170 bus2=171 length=583.211 units=m r1=0.000663124 r0=0.000808557 x1=0.000325502 x0=0.00171857 c1=0.0113939 c0=0.00364045 enabled=True phases=3
New Line.IDLinea135_IDTramos_110 bus1=171 bus2=92 length=10.415 units=m r1=0.000663124 r0=0.000808557 x1=0.000325502 x0=0.00171857 c1=0.0113939 c0=0.00364045 enabled=True phases=3
New Line.IDLinea136_IDTramos_111 bus1=174 bus2=172 length=36.42 units=m r1=0.000952086 r0=0.00109752 x1=0.00033682 x0=0.00172989 c1=0.0109851 c0=0.00359782 enabled=True phases=3
New Line.IDLinea137_IDTramos_112 bus1=173 bus2=174 length=320.936 units=m r1=0.000663124 r0=0.000808557 x1=0.000325502 x0=0.00171857 c1=0.0113939 c0=0.00364045 enabled=True phases=3
New Line.IDLinea138_IDTramos_113 bus1=97 bus2=175 length=35.069 units=m r1=0.000952086 r0=0.00109752 x1=0.00033682 x0=0.00172989 c1=0.0109851 c0=0.00359782 enabled=True phases=3
New Line.IDLinea27_IDTramos_114 bus1=176 bus2=17 length=26.917 units=m r1=0.00048417 r0=0.000629602 x1=0.000315326 x0=0.0017084 c1=0.0117887 c0=0.00367967 enabled=True phases=3
New Line.IDLinea139_IDTramos_115 bus1=177 bus2=178 length=31.668 units=m r1=0.000952086 r0=0.00109752 x1=0.00033682 x0=0.00172989 c1=0.0109851 c0=0.00359782 enabled=True phases=3
New Line.IDLinea140_IDTramos_116 bus1=179 bus2=180 length=31.84 units=m r1=0.000952086 r0=0.00109752 x1=0.00033682 x0=0.00172989 c1=0.0109851 c0=0.00359782 enabled=True phases=3
New Line.IDLinea141_IDTramos_117 bus1=181 bus2=182 length=16.178 units=m r1=0.000952086 r0=0.00109752 x1=0.00033682 x0=0.00172989 c1=0.0109851 c0=0.00359782 enabled=True phases=3
New Line.IDLinea142_IDTramos_118 bus1=183 bus2=184 length=1.069 units=m r1=0.000352234 r0=0.000497666 x1=0.000305055 x0=0.00169813 c1=0.0122161 c0=0.00372013 enabled=True phases=3
New Line.IDLinea142_IDTramos_119 bus1=184 bus2=185 length=37.235 units=m r1=0.000352234 r0=0.000497666 x1=0.000305055 x0=0.00169813 c1=0.0122161 c0=0.00372013 enabled=True phases=3
New Line.IDLinea143_IDTramos_120 bus1=94 bus2=187 length=17.925 units=m r1=0.00048417 r0=0.000629602 x1=0.000315326 x0=0.0017084 c1=0.0117887 c0=0.00367967 enabled=True phases=3
New Line.IDLinea144_IDTramos_121 bus1=186 bus2=187 length=30.922 units=m r1=0.00048417 r0=0.000629602 x1=0.000315326 x0=0.0017084 c1=0.0117887 c0=0.00367967 enabled=True phases=3
New Line.IDLinea145_IDTramos_122 bus1=188 bus2=189 length=40.575 units=m r1=0.000952086 r0=0.00109752 x1=0.00033682 x0=0.00172989 c1=0.0109851 c0=0.00359782 enabled=True phases=3
New Line.IDLinea146_IDTramos_123 bus1=188 bus2=190 length=12.926 units=m r1=0.000952086 r0=0.00109752 x1=0.00033682 x0=0.00172989 c1=0.0109851 c0=0.00359782 enabled=True phases=3
New Line.IDLinea146_IDTramos_124 bus1=190 bus2=191 length=41.476 units=m r1=0.000952086 r0=0.00109752 x1=0.00033682 x0=0.00172989 c1=0.0109851 c0=0.00359782 enabled=True phases=3
New Line.IDLinea147_IDTramos_125 bus1=192 bus2=193 length=10.615 units=m r1=0.000352234 r0=0.000497666 x1=0.000305055 x0=0.00169813 c1=0.0122161 c0=0.00372013 enabled=True phases=3
New Line.IDLinea148_IDTramos_126 bus1=194 bus2=195 length=38.666 units=m r1=0.000952086 r0=0.00109752 x1=0.00033682 x0=0.00172989 c1=0.0109851 c0=0.00359782 enabled=True phases=3
New Line.IDLinea149_IDTramos_127 bus1=196 bus2=197 length=28.564 units=m r1=0.000952086 r0=0.00109752 x1=0.00033682 x0=0.00172989 c1=0.0109851 c0=0.00359782 enabled=True phases=3
New Line.IDLinea150_IDTramos_128 bus1=198 bus2=199 length=67.164 units=m r1=0.000952086 r0=0.00109752 x1=0.00033682 x0=0.00172989 c1=0.0109851 c0=0.00359782 enabled=True phases=3
New Line.IDLinea151_IDTramos_129 bus1=201 bus2=200 length=8.713 units=m r1=0.000952086 r0=0.00109752 x1=0.00033682 x0=0.00172989 c1=0.0109851 c0=0.00359782 enabled=True phases=3
New Line.IDLinea152_IDTramos_130 bus1=201 bus2=202 length=11.284 units=m r1=0.000952086 r0=0.00109752 x1=0.00033682 x0=0.00172989 c1=0.0109851 c0=0.00359782 enabled=True phases=3
New Line.IDLinea153_IDTramos_131 bus1=203 bus2=204 length=15.281 units=m r1=0.000952086 r0=0.00109752 x1=0.00033682 x0=0.00172989 c1=0.0109851 c0=0.00359782 enabled=True phases=3
New Line.IDLinea154_IDTramos_132 bus1=205 bus2=206 length=5.281 units=m r1=0.000275299 r0=0.000420731 x1=0.000297103 x0=0.00169017 c1=0.0125692 c0=0.00375209 enabled=True phases=3
New Line.IDLinea155_IDTramos_133 bus1=188 bus2=207 length=185.044 units=m r1=0.000275299 r0=0.000420731 x1=0.000297103 x0=0.00169017 c1=0.0125692 c0=0.00375209 enabled=True phases=3
New Line.IDLinea158_IDTramos_134 bus1=208 bus2=209 length=112.788 units=m r1=0.00048417 r0=0.000629602 x1=0.000315326 x0=0.0017084 c1=0.0117887 c0=0.00367967 enabled=True phases=3
New Line.IDLinea159_IDTramos_135 bus1=210 bus2=211 length=35.059 units=m r1=0.00048417 r0=0.000629602 x1=0.000315326 x0=0.0017084 c1=0.0117887 c0=0.00367967 enabled=True phases=3
New Line.IDLinea173_IDTramos_136 bus1=212 bus2=213 length=79.298 units=m r1=0.000952086 r0=0.00109752 x1=0.00033682 x0=0.00172989 c1=0.0109851 c0=0.00359782 enabled=True phases=3
New Line.IDLinea174_IDTramos_137 bus1=214 bus2=216 length=60.317 units=m r1=0.000952086 r0=0.00109752 x1=0.00033682 x0=0.00172989 c1=0.0109851 c0=0.00359782 enabled=True phases=3
New Line.IDLinea175_IDTramos_138 bus1=215 bus2=216 length=35.543 units=m r1=0.000952086 r0=0.00109752 x1=0.00033682 x0=0.00172989 c1=0.0109851 c0=0.00359782 enabled=True phases=3
New Line.IDLinea184_IDTramos_139 bus1=217 bus2=218 length=16.275 units=m r1=0.000952086 r0=0.00109752 x1=0.00033682 x0=0.00172989 c1=0.0109851 c0=0.00359782 enabled=True phases=3
New Line.IDLinea185_IDTramos_140 bus1=219 bus2=220 length=196.542 units=m r1=0.000663124 r0=0.000808557 x1=0.000325502 x0=0.00171857 c1=0.0113939 c0=0.00364045 enabled=True phases=3
New Line.IDLinea186_IDTramos_141 bus1=221 bus2=222 length=28.644 units=m r1=0.000952086 r0=0.00109752 x1=0.00033682 x0=0.00172989 c1=0.0109851 c0=0.00359782 enabled=True phases=3
New Line.IDLinea187_IDTramos_142 bus1=223 bus2=224 length=17.695 units=m r1=0.000952086 r0=0.00109752 x1=0.00033682 x0=0.00172989 c1=0.0109851 c0=0.00359782 enabled=True phases=3
New Line.IDLinea188_IDTramos_143 bus1=225 bus2=226 length=4.909 units=m r1=0.000952086 r0=0.00109752 x1=0.00033682 x0=0.00172989 c1=0.0109851 c0=0.00359782 enabled=True phases=3
New Line.IDLinea189_IDTramos_144 bus1=227 bus2=228 length=15.029 units=m r1=0.000952086 r0=0.00109752 x1=0.00033682 x0=0.00172989 c1=0.0109851 c0=0.00359782 enabled=True phases=3
New Line.IDLinea190_IDTramos_145 bus1=229 bus2=230 length=2.431 units=m r1=0.000952086 r0=0.00109752 x1=0.00033682 x0=0.00172989 c1=0.0109851 c0=0.00359782 enabled=True phases=3
New Line.IDLinea190_IDTramos_146 bus1=230 bus2=231 length=12.015 units=m r1=0.000952086 r0=0.00109752 x1=0.00033682 x0=0.00172989 c1=0.0109851 c0=0.00359782 enabled=True phases=3
New Line.IDLinea191_IDTramos_147 bus1=232 bus2=233 length=18.212 units=m r1=0.000952086 r0=0.00109752 x1=0.00033682 x0=0.00172989 c1=0.0109851 c0=0.00359782 enabled=True phases=3
New Line.IDLinea195_IDTramos_148 bus1=234 bus2=235 length=10.434 units=m r1=0.000352234 r0=0.000497666 x1=0.000305055 x0=0.00169813 c1=0.0122161 c0=0.00372013 enabled=True phases=3
New Line.IDLinea196_IDTramos_149 bus1=236 bus2=237 length=36.422 units=m r1=0.00048417 r0=0.000629602 x1=0.000315326 x0=0.0017084 c1=0.0117887 c0=0.00367967 enabled=True phases=3
New Line.IDLinea196_IDTramos_150 bus1=237 bus2=238 length=15.693 units=m r1=0.00048417 r0=0.000629602 x1=0.000315326 x0=0.0017084 c1=0.0117887 c0=0.00367967 enabled=True phases=3
New Line.IDLinea197_IDTramos_151 bus1=239 bus2=240 length=513.851 units=m r1=0.000352234 r0=0.000497666 x1=0.000305055 x0=0.00169813 c1=0.0122161 c0=0.00372013 enabled=True phases=3
New Line.IDLinea197_IDTramos_152 bus1=240 bus2=241 length=21.387 units=m r1=0.000352234 r0=0.000497666 x1=0.000305055 x0=0.00169813 c1=0.0122161 c0=0.00372013 enabled=True phases=3
New Line.IDLinea197_IDTramos_153 bus1=241 bus2=242 length=0.472 units=m r1=0.000352234 r0=0.000497666 x1=0.000305055 x0=0.00169813 c1=0.0122161 c0=0.00372013 enabled=True phases=3
New Line.IDLinea198_IDTramos_154 bus1=242 bus2=243 length=6.68 units=m r1=0.000952086 r0=0.00109752 x1=0.00033682 x0=0.00172989 c1=0.0109851 c0=0.00359782 enabled=True phases=3
New Line.IDLinea199_IDTramos_155 bus1=244 bus2=245 length=5.956 units=m r1=0.000952086 r0=0.00109752 x1=0.00033682 x0=0.00172989 c1=0.0109851 c0=0.00359782 enabled=True phases=3
New Line.IDLinea200_IDTramos_156 bus1=246 bus2=247 length=13.143 units=m r1=0.000952086 r0=0.00109752 x1=0.00033682 x0=0.00172989 c1=0.0109851 c0=0.00359782 enabled=True phases=3
New Line.IDLinea201_IDTramos_157 bus1=248 bus2=249 length=35.278 units=m r1=0.000952086 r0=0.00109752 x1=0.00033682 x0=0.00172989 c1=0.0109851 c0=0.00359782 enabled=True phases=3
New Line.IDLinea202_IDTramos_158 bus1=250 bus2=251 length=5.496 units=m r1=0.000952086 r0=0.00109752 x1=0.00033682 x0=0.00172989 c1=0.0109851 c0=0.00359782 enabled=True phases=3
New Line.IDLinea29_IDTramos_159 bus1=252 bus2=253 length=610.019 units=m r1=0.00048417 r0=0.000629602 x1=0.000315326 x0=0.0017084 c1=0.0117887 c0=0.00367967 enabled=True phases=3
New Line.IDLinea30_IDTramos_160 bus1=254 bus2=255 length=12.589 units=m r1=0.000663124 r0=0.000808557 x1=0.000325502 x0=0.00171857 c1=0.0113939 c0=0.00364045 enabled=True phases=3
New Line.IDLinea31_IDTramos_161 bus1=13 bus2=256 length=12.715 units=m r1=0.00048417 r0=0.000629602 x1=0.000315326 x0=0.0017084 c1=0.0117887 c0=0.00367967 enabled=True phases=3
New Line.IDLinea115_IDTramos_162 bus1=158 bus2=257 length=34.448 units=m r1=0.000952086 r0=0.00109752 x1=0.00033682 x0=0.00172989 c1=0.0109851 c0=0.00359782 enabled=True phases=3
New Line.IDLinea160_IDTramos_163 bus1=258 bus2=259 length=222.605 units=m r1=0.000952086 r0=0.00109752 x1=0.00033682 x0=0.00172989 c1=0.0109851 c0=0.00359782 enabled=True phases=3
New Line.IDLinea160_IDTramos_164 bus1=259 bus2=260 length=16.407 units=m r1=0.000952086 r0=0.00109752 x1=0.00033682 x0=0.00172989 c1=0.0109851 c0=0.00359782 enabled=True phases=3
New Line.IDLinea203_IDTramos_165 bus1=202 bus2=261 length=173.952 units=m r1=0.000352234 r0=0.000497666 x1=0.000305055 x0=0.00169813 c1=0.0122161 c0=0.00372013 enabled=True phases=3
New Line.IDLinea203_IDTramos_166 bus1=261 bus2=262 length=44.068 units=m r1=0.000352234 r0=0.000497666 x1=0.000305055 x0=0.00169813 c1=0.0122161 c0=0.00372013 enabled=True phases=3
New Line.IDLinea116_IDTramos_167 bus1=110 bus2=263 length=35.915 units=m r1=0.000952086 r0=0.00109752 x1=0.00033682 x0=0.00172989 c1=0.0109851 c0=0.00359782 enabled=True phases=3
New Line.IDLinea117_IDTramos_168 bus1=264 bus2=265 length=31.854 units=m r1=0.000952086 r0=0.00109752 x1=0.00033682 x0=0.00172989 c1=0.0109851 c0=0.00359782 enabled=True phases=3
New Line.IDLinea33_IDTramos_169 bus1=63 bus2=302 length=24.266 units=m r1=0.000352234 r0=0.000497666 x1=0.000305055 x0=0.00169813 c1=0.0122161 c0=0.00372013 enabled=True phases=3
New Line.IDLinea118_IDTramos_170 bus1=266 bus2=267 length=13.233 units=m r1=0.000952086 r0=0.00109752 x1=0.00033682 x0=0.00172989 c1=0.0109851 c0=0.00359782 enabled=True phases=3
New Line.IDLinea162_IDTramos_171 bus1=268 bus2=269 length=362.756 units=m r1=0.000952086 r0=0.00109752 x1=0.00033682 x0=0.00172989 c1=0.0109851 c0=0.00359782 enabled=True phases=3
New Line.IDLinea163_IDTramos_172 bus1=270 bus2=271 length=22.841 units=m r1=0.000952086 r0=0.00109752 x1=0.00033682 x0=0.00172989 c1=0.0109851 c0=0.00359782 enabled=True phases=3
New Line.IDLinea164_IDTramos_173 bus1=272 bus2=273 length=22.366 units=m r1=0.000952086 r0=0.00109752 x1=0.00033682 x0=0.00172989 c1=0.0109851 c0=0.00359782 enabled=True phases=3
New Line.IDLinea63_IDTramos_174 bus1=274 bus2=275 length=25.915 units=m r1=0.000952086 r0=0.00109752 x1=0.00033682 x0=0.00172989 c1=0.0109851 c0=0.00359782 enabled=True phases=3
New Line.IDLinea119_IDTramos_175 bus1=276 bus2=277 length=535.72 units=m r1=0.00048417 r0=0.000629602 x1=0.000315326 x0=0.0017084 c1=0.0117887 c0=0.00367967 enabled=True phases=3
New Line.IDLinea64_IDTramos_176 bus1=274 bus2=278 length=44.585 units=m r1=0.00131006 r0=0.0014555 x1=0.000346644 x0=0.00173971 c1=0.0106534 c0=0.00356164 enabled=True phases=3
New Line.IDLinea64_IDTramos_177 bus1=278 bus2=279 length=22.112 units=m r1=0.00131006 r0=0.0014555 x1=0.000346644 x0=0.00173971 c1=0.0106534 c0=0.00356164 enabled=True phases=3
New Line.IDLinea64_IDTramos_178 bus1=279 bus2=280 length=50.349 units=m r1=0.00131006 r0=0.0014555 x1=0.000346644 x0=0.00173971 c1=0.0106534 c0=0.00356164 enabled=True phases=3
New Line.IDLinea64_IDTramos_179 bus1=280 bus2=281 length=37.982 units=m r1=0.00131006 r0=0.0014555 x1=0.000346644 x0=0.00173971 c1=0.0106534 c0=0.00356164 enabled=True phases=3
New Line.IDLinea64_IDTramos_180 bus1=281 bus2=282 length=21.405 units=m r1=0.00131006 r0=0.0014555 x1=0.000346644 x0=0.00173971 c1=0.0106534 c0=0.00356164 enabled=True phases=3
New Line.IDLinea64_IDTramos_181 bus1=282 bus2=283 length=101.508 units=m r1=0.00131006 r0=0.0014555 x1=0.000346644 x0=0.00173971 c1=0.0106534 c0=0.00356164 enabled=True phases=3
New Line.IDLinea64_IDTramos_182 bus1=283 bus2=284 length=173.784 units=m r1=0.00131006 r0=0.0014555 x1=0.000346644 x0=0.00173971 c1=0.0106534 c0=0.00356164 enabled=True phases=3
New Line.IDLinea64_IDTramos_183 bus1=284 bus2=285 length=13.176 units=m r1=0.00131006 r0=0.0014555 x1=0.000346644 x0=0.00173971 c1=0.0106534 c0=0.00356164 enabled=True phases=3
New Line.IDLinea64_IDTramos_184 bus1=285 bus2=286 length=604.206 units=m r1=0.00131006 r0=0.0014555 x1=0.000346644 x0=0.00173971 c1=0.0106534 c0=0.00356164 enabled=True phases=3
New Line.IDLinea64_IDTramos_185 bus1=286 bus2=287 length=7.503 units=m r1=0.00131006 r0=0.0014555 x1=0.000346644 x0=0.00173971 c1=0.0106534 c0=0.00356164 enabled=True phases=3
New Line.IDLinea34_IDTramos_186 bus1=64 bus2=288 length=39.727 units=m r1=0.000952086 r0=0.00109752 x1=0.00033682 x0=0.00172989 c1=0.0109851 c0=0.00359782 enabled=True phases=3
New Line.IDLinea36_IDTramos_187 bus1=289 bus2=290 length=8.613 units=m r1=0.000952086 r0=0.00109752 x1=0.00033682 x0=0.00172989 c1=0.0109851 c0=0.00359782 enabled=True phases=3
New Line.IDLinea37_IDTramos_188 bus1=186 bus2=291 length=101.887 units=m r1=0.00048417 r0=0.000629602 x1=0.000315326 x0=0.0017084 c1=0.0117887 c0=0.00367967 enabled=True phases=3
New Line.IDLinea67_IDTramos_189 bus1=292 bus2=293 length=15.952 units=m r1=0.000663124 r0=0.000808557 x1=0.000325502 x0=0.00171857 c1=0.0113939 c0=0.00364045 enabled=True phases=3
New Line.IDLinea67_IDTramos_190 bus1=293 bus2=78 length=698.566 units=m r1=0.000663124 r0=0.000808557 x1=0.000325502 x0=0.00171857 c1=0.0113939 c0=0.00364045 enabled=True phases=3
New Line.IDLinea68_IDTramos_191 bus1=294 bus2=295 length=14.546 units=m r1=0.00048417 r0=0.000629602 x1=0.000315326 x0=0.0017084 c1=0.0117887 c0=0.00367967 enabled=True phases=3
New Line.IDLinea69_IDTramos_192 bus1=296 bus2=297 length=28.83 units=m r1=0.000952086 r0=0.00109752 x1=0.00033682 x0=0.00172989 c1=0.0109851 c0=0.00359782 enabled=True phases=3
New Line.IDLinea70_IDTramos_193 bus1=298 bus2=299 length=124.425 units=m r1=0.000663124 r0=0.000808557 x1=0.000325502 x0=0.00171857 c1=0.0113939 c0=0.00364045 enabled=True phases=3
New Line.IDLinea71_IDTramos_194 bus1=300 bus2=301 length=21.779 units=m r1=0.000663124 r0=0.000808557 x1=0.000325502 x0=0.00171857 c1=0.0113939 c0=0.00364045 enabled=True phases=3
New Line.IDLinea72_IDTramos_195 bus1=302 bus2=303 length=58.383 units=m r1=0.00048417 r0=0.000629602 x1=0.000315326 x0=0.0017084 c1=0.0117887 c0=0.00367967 enabled=True phases=3
New Line.IDLinea74_IDTramos_196 bus1=305 bus2=304 length=550.419 units=m r1=0.00048417 r0=0.000629602 x1=0.000315326 x0=0.0017084 c1=0.0117887 c0=0.00367967 enabled=True phases=3
New Line.IDLinea75_IDTramos_197 bus1=305 bus2=298 length=169.125 units=m r1=0.00131006 r0=0.0014555 x1=0.000346644 x0=0.00173971 c1=0.0106534 c0=0.00356164 enabled=True phases=3
New Line.IDLinea76_IDTramos_198 bus1=306 bus2=307 length=23.617 units=m r1=0.000952086 r0=0.00109752 x1=0.00033682 x0=0.00172989 c1=0.0109851 c0=0.00359782 enabled=True phases=3
New Line.IDLinea77_IDTramos_199 bus1=308 bus2=309 length=87.676 units=m r1=0.000952086 r0=0.00109752 x1=0.00033682 x0=0.00172989 c1=0.0109851 c0=0.00359782 enabled=True phases=3
New Line.IDLinea165_IDTramos_200 bus1=310 bus2=311 length=15.737 units=m r1=0.00209004 r0=0.00223547 x1=0.000361884 x0=0.00175495 c1=0.0101771 c0=0.00350694 enabled=True phases=3
...
