dss/import/capas-pablo/Formato-plugin/completo/Transformadores.txt
New Transformer.IDSeta_2 phases=3 wdg=1 bus=632.1.2.3 kv=13.2 kVA=16 wdg=2 bus=X_2.1.2.3 kv=0.38  kVA=16 %imag=0.5 %loadloss=1.5 %noloadloss=.25 XHL=2 conns=[delta, wye] ppm_antifloat=0
New Transformer.IDSeta_10 phases=3 wdg=1 bus=1202.1.2.3 kv=13.2 kVA=200 wdg=2 bus=X_10.1.2.3 kv=0.38  kVA=200 %imag=0.5 %loadloss=1.5 %noloadloss=.25 XHL=2 conns=[delta, wye] ppm_antifloat=0
New Transformer.IDSeta_79 phases=3 wdg=1 bus=1198.1.2.3 kv=13.2 kVA=125 wdg=2 bus=X_79.1.2.3 kv=0.38  kVA=125 %imag=0.5 %loadloss=1.5 %noloadloss=.25 XHL=2 conns=[delta, wye] ppm_antifloat=0
New Transformer.IDSeta_80 phases=3 wdg=1 bus=1229.1.2.3 kv=13.2 kVA=200 wdg=2 bus=X_80.1.2.3 kv=0.38  kVA=200 %imag=0.5 %loadloss=1.5 %noloadloss=.25 XHL=2 conns=[delta, wye] ppm_antifloat=0
New Transformer.IDSeta_84 phases=3 wdg=1 bus=1216.1.2.3 kv=13.2 kVA=100 wdg=2 bus=X_84.1.2.3 kv=0.38  kVA=100 %imag=0.5 %loadloss=1.5 %noloadloss=.25 XHL=2 conns=[delta, wye] ppm_antifloat=0
New Transformer.IDSeta_85 phases=3 wdg=1 bus=1569.1.2.3 kv=13.2 kVA=250 wdg=2 bus=X_85.1.2.3 kv=0.38  kVA=250 %imag=0.5 %loadloss=1.5 %noloadloss=.25 XHL=2 conns=[delta, wye] ppm_antifloat=0
New Transformer.IDSeta_86 phases=3 wdg=1 bus=1251.1.2.3 kv=13.2 kVA=160 wdg=2 bus=X_86.1.2.3 kv=0.38  kVA=160 %imag=0.5 %loadloss=1.5 %noloadloss=.25 XHL=2 conns=[delta, wye] ppm_antifloat=0
New Transformer.IDSeta_87 phases=3 wdg=1 bus=1261.1.2.3 kv=13.2 kVA=160 wdg=2 bus=X_87.1.2.3 kv=0.38  kVA=160 %imag=0.5 %loadloss=1.5 %noloadloss=.25 XHL=2 conns=[delta, wye] ppm_antifloat=0
New Transformer.IDSeta_200 phases=3 wdg=1 bus=1253.1.2.3 kv=13.2 kVA=200 wdg=2 bus=X_200.1.2.3 kv=0.38  kVA=200 %imag=0.5 %loadloss=1.5 %noloadloss=.25 XHL=2 conns=[delta, wye] ppm_antifloat=0
New Transformer.IDSeta_278 phases=3 wdg=1 bus=1042.1.2.3 kv=13.2 kVA=63 wdg=2 bus=X_278.1.2.3 kv=0.38  kVA=63 %imag=0.5 %loadloss=1.5 %noloadloss=.25 XHL=2 conns=[delta, wye] ppm_antifloat=0
New Transformer.IDSeta_337 phases=3 wdg=1 bus=722.1.2.3 kv=13.2 kVA=100 wdg=2 bus=X_337.1.2.3 kv=0.38  kVA=100 %imag=0.5 %loadloss=1.5 %noloadloss=.25 XHL=2 conns=[delta, wye] ppm_antifloat=0
New Transformer.IDSeta_531 phases=3 wdg=1 bus=712 kv=13.2 kVA=5 wdg=2 bus=X_531.1.2.3 kv=0.38 kVA=5 %imag=0.5 %loadloss=1.5 %noloadloss=.25 XHL=2 conns=[delta, wye] ppm_antifloat=0
New Transformer.IDSeta_540 phases=3 wdg=1 bus=79.1.2.3 kv=13.2 kVA=10 wdg=2 bus=X_540.1.2.3 kv=0.38  kVA=10 %imag=0.5 %loadloss=1.5 %noloadloss=.25 XHL=2 conns=[delta, wye] ppm_antifloat=0
New Transformer.IDSeta_541 phases=3 wdg=1 bus=76.1.2.3 kv=13.2 kVA=25 wdg=2 bus=X_541.1.2.3 kv=0.38  kVA=25 %imag=0.5 %loadloss=1.5 %noloadloss=.25 XHL=2 conns=[delta, wye] ppm_antifloat=0
New Transformer.IDSeta_551 phases=3 wdg=1 bus=979.1.2.3 kv=13.2 kVA=25 wdg=2 bus=X_551.1.2.3 kv=0.38  kVA=25 %imag=0.5 %loadloss=1.5 %noloadloss=.25 XHL=2 conns=[delta, wye] ppm_antifloat=0
New Transformer.IDSeta_594 phases=3 wdg=1 bus=33.1.2.3 kv=13.2 kVA=200 wdg=2 bus=X_594.1.2.3 kv=0.38  kVA=200 %imag=0.5 %loadloss=1.5 %noloadloss=.25 XHL=2 conns=[delta, wye] ppm_antifloat=0
New Transformer.IDSeta_637 phases=3 wdg=1 bus=1068.1.2.3 kv=13.2 kVA=80 wdg=2 bus=X_637.1.2.3 kv=0.38  kVA=80 %imag=0.5 %loadloss=1.5 %noloadloss=.25 XHL=2 conns=[delta, wye] ppm_antifloat=0
New Transformer.IDSeta_644 phases=3 wdg=1 bus=665.1.2.3 kv=13.2 kVA=75 wdg=2 bus=X_644.1.2.3 kv=0.38  kVA=75 %imag=0.5 %loadloss=1.5 %noloadloss=.25 XHL=2 conns=[delta, wye] ppm_antifloat=0
New Transformer.IDSeta_656 phases=3 wdg=1 bus=1775.1.2.3 kv=13.2 kVA=80 wdg=2 bus=X_656.1.2.3 kv=0.38  kVA=80 %imag=0.5 %loadloss=1.5 %noloadloss=.25 XHL=2 conns=[delta, wye] ppm_antifloat=0
New Transformer.IDSeta_659 phases=3 wdg=1 bus=578.1.2.3 kv=13.2 kVA=16 wdg=2 bus=X_659.1.2.3 kv=0.38  kVA=16 %imag=0.5 %loadloss=1.5 %noloadloss=.25 XHL=2 conns=[delta, wye] ppm_antifloat=0
New Transformer.IDSeta_781 phases=3 wdg=1 bus=1069.1.2.3 kv=13.2 kVA=80 wdg=2 bus=X_781.1.2.3 kv=0.38  kVA=80 %imag=0.5 %loadloss=1.5 %noloadloss=.25 XHL=2 conns=[delta, wye] ppm_antifloat=0
New Transformer.IDSeta_784 phases=3 wdg=1 bus=102.1.2.3 kv=13.2 kVA=160 wdg=2 bus=X_784.1.2.3 kv=0.38  kVA=160 %imag=0.5 %loadloss=1.5 %noloadloss=.25 XHL=2 conns=[delta, wye] ppm_antifloat=0
New Transformer.IDSeta_805 phases=3 wdg=1 bus=1065.1.2.3 kv=13.2 kVA=40 wdg=2 bus=X_805.1.2.3 kv=0.38  kVA=40 %imag=0.5 %loadloss=1.5 %noloadloss=.25 XHL=2 conns=[delta, wye] ppm_antifloat=0
New Transformer.IDSeta_821 phases=3 wdg=1 bus=112.1.2.3 kv=13.2 kVA=40 wdg=2 bus=X_821.1.2.3 kv=0.38  kVA=40 %imag=0.5 %loadloss=1.5 %noloadloss=.25 XHL=2 conns=[delta, wye] ppm_antifloat=0
New Transformer.IDSeta_828 phases=3 wdg=1 bus=1596.1.2.3 kv=13.2 kVA=80 wdg=2 bus=X_828.1.2.3 kv=0.38  kVA=80 %imag=0.5 %loadloss=1.5 %noloadloss=.25 XHL=2 conns=[delta, wye] ppm_antifloat=0
New Transformer.IDSeta_14 phases=3 wdg=1 bus=1227.1.2.3 kv=13.2 kVA=315 wdg=2 bus=X_14.1.2.3 kv=0.38  kVA=315 %imag=0.5 %loadloss=1.5 %noloadloss=.25 XHL=2 conns=[delta, wye] ppm_antifloat=0
New Transformer.IDSeta_15 phases=3 wdg=1 bus=1233.1.2.3 kv=13.2 kVA=315 wdg=2 bus=X_15.1.2.3 kv=0.38  kVA=315 %imag=0.5 %loadloss=1.5 %noloadloss=.25 XHL=2 conns=[delta, wye] ppm_antifloat=0
New Transformer.IDSeta_17 phases=3 wdg=1 bus=1519.1.2.3 kv=13.2 kVA=400 wdg=2 bus=X_17.1.2.3 kv=0.38  kVA=400 %imag=0.5 %loadloss=1.5 %noloadloss=.25 XHL=2 conns=[delta, wye] ppm_antifloat=0
New Transformer.IDSeta_20 phases=3 wdg=1 bus=343.1.2.3 kv=13.2 kVA=80 wdg=2 bus=X_20.1.2.3 kv=0.38  kVA=80 %imag=0.5 %loadloss=1.5 %noloadloss=.25 XHL=2 conns=[delta, wye] ppm_antifloat=0
New Transformer.IDSeta_50 phases=3 wdg=1 bus=1264.1.2.3 kv=13.2 kVA=400 wdg=2 bus=X_50.1.2.3 kv=0.38  kVA=400 %imag=0.5 %loadloss=1.5 %noloadloss=.25 XHL=2 conns=[delta, wye] ppm_antifloat=0
New Transformer.IDSeta_51 phases=3 wdg=1 bus=1265.1.2.3 kv=13.2 kVA=315 wdg=2 bus=X_51.1.2.3 kv=0.38  kVA=315 %imag=0.5 %loadloss=1.5 %noloadloss=.25 XHL=2 conns=[delta, wye] ppm_antifloat=0
New Transformer.IDSeta_1243 phases=3 wdg=1 bus=1153.1.2.3 kv=13.2 kVA=25 wdg=2 bus=X_1243.1.2.3 kv=0.38  kVA=25 %imag=0.5 %loadloss=1.5 %noloadloss=.25 XHL=2 conns=[delta, wye] ppm_antifloat=0
New Transformer.IDSeta_1244 phases=3 wdg=1 bus=1157.1.2.3 kv=13.2 kVA=80 wdg=2 bus=X_1244.1.2.3 kv=0.38  kVA=80 %imag=0.5 %loadloss=1.5 %noloadloss=.25 XHL=2 conns=[delta, wye] ppm_antifloat=0
New Transformer.IDSeta_1245 phases=3 wdg=1 bus=1156.1.2.3 kv=13.2 kVA=80 wdg=2 bus=X_1245.1.2.3 kv=0.38  kVA=80 %imag=0.5 %loadloss=1.5 %noloadloss=.25 XHL=2 conns=[delta, wye] ppm_antifloat=0
New Transformer.IDSeta_1289 phases=3 wdg=1 bus=661.1.2.3 kv=13.2 kVA=100 wdg=2 bus=X_1289.1.2.3 kv=0.38  kVA=100 %imag=0.5 %loadloss=1.5 %noloadloss=.25 XHL=2 conns=[delta, wye] ppm_antifloat=0
New Transformer.IDSeta_1318 phases=3 wdg=1 bus=1087.1.2.3 kv=13.2 kVA=5 wdg=2 bus=X_1318.1.2.3 kv=0.38  kVA=5 %imag=0.5 %loadloss=1.5 %noloadloss=.25 XHL=2 conns=[delta, wye] ppm_antifloat=0
New Transformer.IDSeta_1326 phases=3 wdg=1 bus=624.1.2.3 kv=13.2 kVA=5 wdg=2 bus=X_1326.1.2.3 kv=0.38  kVA=5 %imag=0.5 %loadloss=1.5 %noloadloss=.25 XHL=2 conns=[delta, wye] ppm_antifloat=0
New Transformer.IDSeta_1352 phases=3 wdg=1 bus=1132.1.2.3 kv=13.2 kVA=160 wdg=2 bus=X_1352.1.2.3 kv=0.38  kVA=160 %imag=0.5 %loadloss=1.5 %noloadloss=.25 XHL=2 conns=[delta, wye] ppm_antifloat=0
New Transformer.IDSeta_5030 phases=3 wdg=1 bus=1441.1.2.3 kv=33 kVA=25 wdg=2 bus=X_5030.1.2.3 kv=0.38 kVA=25 %imag=0.5 %loadloss=1.5  %noloadloss=.25 XHL=2 conns=[delta, wye] ppm_antifloat=0
New Transformer.IDSeta_1353 phases=3 wdg=1 bus=1151.1.2.3 kv=13.2 kVA=200 wdg=2 bus=X_1353.1.2.3 kv=0.38  kVA=200 %imag=0.5 %loadloss=1.5 %noloadloss=.25 XHL=2 conns=[delta, wye] ppm_antifloat=0
New Transformer.IDSeta_1984 phases=3 wdg=1 bus=276.1.2.3 kv=13.2 kVA=40 wdg=2 bus=X_1984.1.2.3 kv=0.38  kVA=40 %imag=0.5 %loadloss=1.5 %noloadloss=.25 XHL=2 conns=[delta, wye] ppm_antifloat=0
New Transformer.IDSeta_2064 phases=3 wdg=1 bus=678.1.2.3 kv=13.2 kVA=63 wdg=2 bus=X_2064.1.2.3 kv=0.38  kVA=63 %imag=0.5 %loadloss=1.5 %noloadloss=.25 XHL=2 conns=[delta, wye] ppm_antifloat=0
New Transformer.IDSeta_2065 phases=3 wdg=1 bus=400.1.2.3 kv=13.2 kVA=10 wdg=2 bus=X_2065.1.2.3 kv=0.38  kVA=10 %imag=0.5 %loadloss=1.5 %noloadloss=.25 XHL=2 conns=[delta, wye] ppm_antifloat=0
New Transformer.IDSeta_2073 phases=3 wdg=1 bus=1.1.2.3 kv=13.2 kVA=40 wdg=2 bus=X_2073.1.2.3 kv=0.38  kVA=40 %imag=0.5 %loadloss=1.5 %noloadloss=.25 XHL=2 conns=[delta, wye] ppm_antifloat=0
New Transformer.IDSeta_2074 phases=3 wdg=1 bus=1045.1.2.3 kv=13.2 kVA=63 wdg=2 bus=X_2074.1.2.3 kv=0.38  kVA=63 %imag=0.5 %loadloss=1.5 %noloadloss=.25 XHL=2 conns=[delta, wye] ppm_antifloat=0
New Transformer.IDSeta_151 phases=3 wdg=1 bus=1591 kv=13.2 kVA=63 wdg=2 bus=X_151.1.2.3 kv=0.38 kVA=63 %imag=0.5 %loadloss=1.5 %noloadloss=.25 XHL=2 conns=[delta, wye] ppm_antifloat=0
New Transformer.IDSeta_2286 phases=3 wdg=1 bus=1161.1.2.3 kv=13.2 kVA=100 wdg=2 bus=X_2286.1.2.3 kv=0.38  kVA=100 %imag=0.5 %loadloss=1.5 %noloadloss=.25 XHL=2 conns=[delta, wye] ppm_antifloat=0
New Transformer.IDSeta_81 phases=3 wdg=1 bus=1231.1.2.3 kv=13.2 kVA=400 wdg=2 bus=X_81.1.2.3 kv=0.38  kVA=400 %imag=0.5 %loadloss=1.5 %noloadloss=.25 XHL=2 conns=[delta, wye] ppm_antifloat=0
New Transformer.IDSeta_82 phases=3 wdg=1 bus=1259.1.2.3 kv=13.2 kVA=315 wdg=2 bus=X_82.1.2.3 kv=0.38  kVA=315 %imag=0.5 %loadloss=1.5 %noloadloss=.25 XHL=2 conns=[delta, wye] ppm_antifloat=0
New Transformer.IDSeta_83 phases=3 wdg=1 bus=546.1.2.3 kv=13.2 kVA=315 wdg=2 bus=X_83.1.2.3 kv=0.38  kVA=315 %imag=0.5 %loadloss=1.5 %noloadloss=.25 XHL=2 conns=[delta, wye] ppm_antifloat=0
New Transformer.IDSeta_202 phases=3 wdg=1 bus=1515.1.2.3 kv=13.2 kVA=800 wdg=2 bus=X_202.1.2.3 kv=0.38  kVA=800 %imag=0.5 %loadloss=1.5 %noloadloss=.25 XHL=2 conns=[delta, wye] ppm_antifloat=0
New Transformer.IDSeta_204 phases=3 wdg=1 bus=148.1.2.3 kv=13.2 kVA=63 wdg=2 bus=X_204.1.2.3 kv=0.38  kVA=63 %imag=0.5 %loadloss=1.5 %noloadloss=.25 XHL=2 conns=[delta, wye] ppm_antifloat=0
New Transformer.IDSeta_242 phases=3 wdg=1 bus=716.1.2.3 kv=13.2 kVA=63 wdg=2 bus=X_242.1.2.3 kv=0.38  kVA=63 %imag=0.5 %loadloss=1.5 %noloadloss=.25 XHL=2 conns=[delta, wye] ppm_antifloat=0
New Transformer.IDSeta_252 phases=3 wdg=1 bus=1118.1.2.3 kv=13.2 kVA=10 wdg=2 bus=X_252.1.2.3 kv=0.38  kVA=10 %imag=0.5 %loadloss=1.5 %noloadloss=.25 XHL=2 conns=[delta, wye] ppm_antifloat=0
New Transformer.IDSeta_335 phases=3 wdg=1 bus=1309.1.2.3 kv=13.2 kVA=315 wdg=2 bus=X_335.1.2.3 kv=0.38  kVA=315 %imag=0.5 %loadloss=1.5 %noloadloss=.25 XHL=2 conns=[delta, wye] ppm_antifloat=0
New Transformer.IDSeta_400 phases=3 wdg=1 bus=1176.1.2.3 kv=13.2 kVA=63 wdg=2 bus=X_400.1.2.3 kv=0.38  kVA=63 %imag=0.5 %loadloss=1.5 %noloadloss=.25 XHL=2 conns=[delta, wye] ppm_antifloat=0
New Transformer.IDSeta_2377 phases=3 wdg=1 bus=776.1.2.3 kv=13.2 kVA=5 wdg=2 bus=X_2377.1.2.3 kv=0.38  kVA=5 %imag=0.5 %loadloss=1.5 %noloadloss=.25 XHL=2 conns=[delta, wye] ppm_antifloat=0
New Transformer.IDSeta_2395 phases=3 wdg=1 bus=130.1.2.3 kv=13.2 kVA=25 wdg=2 bus=X_2395.1.2.3 kv=0.38  kVA=25 %imag=0.5 %loadloss=1.5 %noloadloss=.25 XHL=2 conns=[delta, wye] ppm_antifloat=0
New Transformer.IDSeta_2548 phases=3 wdg=1 bus=149 kv=13.2 kVA=5 wdg=2 bus=X_2548.1.2.3 kv=0.38 kVA=5 %imag=0.5 %loadloss=1.5 %noloadloss=.25 XHL=2 conns=[delta, wye] ppm_antifloat=0
New Transformer.IDSeta_2644 phases=3 wdg=1 bus=418.1.2.3 kv=13.2 kVA=5 wdg=2 bus=X_2644.1.2.3 kv=0.38  kVA=5 %imag=0.5 %loadloss=1.5 %noloadloss=.25 XHL=2 conns=[delta, wye] ppm_antifloat=0
New Transformer.IDSeta_3022 phases=3 wdg=1 bus=1312.1.2.3 kv=13.2 kVA=63 wdg=2 bus=X_3022.1.2.3 kv=0.38  kVA=63 %imag=0.5 %loadloss=1.5 %noloadloss=.25 XHL=2 conns=[delta, wye] ppm_antifloat=0
New Transformer.IDSeta_2645 phases=3 wdg=1 bus=638.1.2.3 kv=13.2 kVA=16 wdg=2 bus=X_2645.1.2.3 kv=0.38  kVA=16 %imag=0.5 %loadloss=1.5 %noloadloss=.25 XHL=2 conns=[delta, wye] ppm_antifloat=0
New Transformer.IDSeta_2646 phases=3 wdg=1 bus=724.1.2.3 kv=13.2 kVA=16 wdg=2 bus=X_2646.1.2.3 kv=0.38  kVA=16 %imag=0.5 %loadloss=1.5 %noloadloss=.25 XHL=2 conns=[delta, wye] ppm_antifloat=0
New Transformer.IDSeta_2660 phases=3 wdg=1 bus=65.1.2.3 kv=13.2 kVA=160 wdg=2 bus=X_2660.1.2.3 kv=0.38  kVA=160 %imag=0.5 %loadloss=1.5 %noloadloss=.25 XHL=2 conns=[delta, wye] ppm_antifloat=0
New Transformer.IDSeta_11 phases=3 wdg=1 bus=1648.1.2.3 kv=13.2 kVA=315 wdg=2 bus=X_11.1.2.3 kv=0.38  kVA=315 %imag=0.5 %loadloss=1.5 %noloadloss=.25 XHL=2 conns=[delta, wye] ppm_antifloat=0
New Transformer.IDSeta_12 phases=3 wdg=1 bus=1205.1.2.3 kv=13.2 kVA=315 wdg=2 bus=X_12.1.2.3 kv=0.38  kVA=315 %imag=0.5 %loadloss=1.5 %noloadloss=.25 XHL=2 conns=[delta, wye] ppm_antifloat=0
New Transformer.IDSeta_13 phases=3 wdg=1 bus=1206.1.2.3 kv=13.2 kVA=315 wdg=2 bus=X_13.1.2.3 kv=0.38  kVA=315 %imag=0.5 %loadloss=1.5 %noloadloss=.25 XHL=2 conns=[delta, wye] ppm_antifloat=0
New Transformer.IDSeta_2666 phases=3 wdg=1 bus=1012.1.2.3 kv=13.2 kVA=315 wdg=2 bus=X_2666.1.2.3 kv=0.38  kVA=315 %imag=0.5 %loadloss=1.5 %noloadloss=.25 XHL=2 conns=[delta, wye] ppm_antifloat=0
New Transformer.IDSeta_2683 phases=3 wdg=1 bus=1135 kv=13.2 kVA=160 wdg=2 bus=X_2683.1.2.3 kv=0.38 kVA=160 %imag=0.5 %loadloss=1.5 %noloadloss=.25 XHL=2 conns=[delta, wye] ppm_antifloat=0
New Transformer.IDSeta_2724 phases=3 wdg=1 bus=627 kv=13.2 kVA=5 wdg=2 bus=X_2724.1.2.3 kv=0.38 kVA=5 %imag=0.5 %loadloss=1.5 %noloadloss=.25 XHL=2 conns=[delta, wye] ppm_antifloat=0
New Transformer.IDSeta_2748 phases=3 wdg=1 bus=1102.1.2.3 kv=13.2 kVA=40 wdg=2 bus=X_2748.1.2.3 kv=0.38  kVA=40 %imag=0.5 %loadloss=1.5 %noloadloss=.25 XHL=2 conns=[delta, wye] ppm_antifloat=0
New Transformer.IDSeta_2937 phases=3 wdg=1 bus=339.1.2.3 kv=13.2 kVA=630 wdg=2 bus=X_2937.1.2.3 kv=0.38  kVA=630 %imag=0.5 %loadloss=1.5 %noloadloss=.25 XHL=2 conns=[delta, wye] ppm_antifloat=0
New Transformer.IDSeta_2950 phases=3 wdg=1 bus=1138.1.2.3 kv=13.2 kVA=63 wdg=2 bus=X_2950.1.2.3 kv=0.38  kVA=63 %imag=0.5 %loadloss=1.5 %noloadloss=.25 XHL=2 conns=[delta, wye] ppm_antifloat=0
New Transformer.IDSeta_2951 phases=3 wdg=1 bus=599.1.2.3 kv=13.2 kVA=63 wdg=2 bus=X_2951.1.2.3 kv=0.38  kVA=63 %imag=0.5 %loadloss=1.5 %noloadloss=.25 XHL=2 conns=[delta, wye] ppm_antifloat=0
New Transformer.IDSeta_2952 phases=3 wdg=1 bus=673.1.2.3 kv=13.2 kVA=5 wdg=2 bus=X_2952.1.2.3 kv=0.38  kVA=5 %imag=0.5 %loadloss=1.5 %noloadloss=.25 XHL=2 conns=[delta, wye] ppm_antifloat=0
New Transformer.IDSeta_2953 phases=3 wdg=1 bus=347.1.2.3 kv=13.2 kVA=25 wdg=2 bus=X_2953.1.2.3 kv=0.38  kVA=25 %imag=0.5 %loadloss=1.5 %noloadloss=.25 XHL=2 conns=[delta, wye] ppm_antifloat=0
New Transformer.IDSeta_2954 phases=3 wdg=1 bus=612.1.2.3 kv=13.2 kVA=315 wdg=2 bus=X_2954.1.2.3 kv=0.38  kVA=315 %imag=0.5 %loadloss=1.5 %noloadloss=.25 XHL=2 conns=[delta, wye] ppm_antifloat=0
New Transformer.IDSeta_2955 phases=3 wdg=1 bus=583.1.2.3 kv=13.2 kVA=200 wdg=2 bus=X_2955.1.2.3 kv=0.38  kVA=200 %imag=0.5 %loadloss=1.5 %noloadloss=.25 XHL=2 conns=[delta, wye] ppm_antifloat=0
New Transformer.IDSeta_2961 phases=3 wdg=1 bus=413.1.2.3 kv=13.2 kVA=40 wdg=2 bus=X_2961.1.2.3 kv=0.38  kVA=40 %imag=0.5 %loadloss=1.5 %noloadloss=.25 XHL=2 conns=[delta, wye] ppm_antifloat=0
New Transformer.IDSeta_2963 phases=3 wdg=1 bus=1772.1.2.3 kv=13.2 kVA=16 wdg=2 bus=X_2963.1.2.3 kv=0.38  kVA=16 %imag=0.5 %loadloss=1.5 %noloadloss=.25 XHL=2 conns=[delta, wye] ppm_antifloat=0
New Transformer.IDSeta_2964 phases=3 wdg=1 bus=1168.1.2.3 kv=13.2 kVA=63 wdg=2 bus=X_2964.1.2.3 kv=0.38  kVA=63 %imag=0.5 %loadloss=1.5 %noloadloss=.25 XHL=2 conns=[delta, wye] ppm_antifloat=0
New Transformer.IDSeta_2968 phases=3 wdg=1 bus=650.1.2.3 kv=13.2 kVA=75 wdg=2 bus=X_2968.1.2.3 kv=0.38  kVA=75 %imag=0.5 %loadloss=1.5 %noloadloss=.25 XHL=2 conns=[delta, wye] ppm_antifloat=0
New Transformer.IDSeta_2969 phases=3 wdg=1 bus=604.1.2.3 kv=13.2 kVA=63 wdg=2 bus=X_2969.1.2.3 kv=0.38  kVA=63 %imag=0.5 %loadloss=1.5 %noloadloss=.25 XHL=2 conns=[delta, wye] ppm_antifloat=0
New Transformer.IDSeta_2970 phases=3 wdg=1 bus=1054.1.2.3 kv=13.2 kVA=63 wdg=2 bus=X_2970.1.2.3 kv=0.38  kVA=63 %imag=0.5 %loadloss=1.5 %noloadloss=.25 XHL=2 conns=[delta, wye] ppm_antifloat=0
New Transformer.IDSeta_2971 phases=3 wdg=1 bus=1056.1.2.3 kv=13.2 kVA=80 wdg=2 bus=X_2971.1.2.3 kv=0.38  kVA=80 %imag=0.5 %loadloss=1.5 %noloadloss=.25 XHL=2 conns=[delta, wye] ppm_antifloat=0
New Transformer.IDSeta_2972 phases=3 wdg=1 bus=602.1.2.3 kv=13.2 kVA=63 wdg=2 bus=X_2972.1.2.3 kv=0.38  kVA=63 %imag=0.5 %loadloss=1.5 %noloadloss=.25 XHL=2 conns=[delta, wye] ppm_antifloat=0
New Transformer.IDSeta_2975 phases=3 wdg=1 bus=1150.1.2.3 kv=13.2 kVA=160 wdg=2 bus=X_2975.1.2.3 kv=0.38  kVA=160 %imag=0.5 %loadloss=1.5 %noloadloss=.25 XHL=2 conns=[delta, wye] ppm_antifloat=0
New Transformer.IDSeta_146 phases=3 wdg=1 bus=1789 kv=13.2 kVA=63 wdg=2 bus=X_146.1.2.3 kv=0.38 kVA=63 %imag=0.5 %loadloss=1.5 %noloadloss=.25 XHL=2 conns=[delta, wye] ppm_antifloat=0
New Transformer.IDSeta_152 phases=3 wdg=1 bus=1576 kv=13.2 kVA=80 wdg=2 bus=X_152.1.2.3 kv=0.38 kVA=80 %imag=0.5 %loadloss=1.5 %noloadloss=.25 XHL=2 conns=[delta, wye] ppm_antifloat=0
New Transformer.IDSeta_19 phases=3 wdg=1 bus=1305.1.2.3 kv=13.2 kVA=40 wdg=2 bus=X_19.1.2.3 kv=0.38  kVA=40 %imag=0.5 %loadloss=1.5 %noloadloss=.25 XHL=2 conns=[delta, wye] ppm_antifloat=0
New Transformer.IDSeta_21 phases=3 wdg=1 bus=345.1.2.3 kv=13.2 kVA=63 wdg=2 bus=X_21.1.2.3 kv=0.38  kVA=63 %imag=0.5 %loadloss=1.5 %noloadloss=.25 XHL=2 conns=[delta, wye] ppm_antifloat=0
New Transformer.IDSeta_24 phases=3 wdg=1 bus=358.1.2.3 kv=13.2 kVA=200 wdg=2 bus=X_24.1.2.3 kv=0.38  kVA=200 %imag=0.5 %loadloss=1.5 %noloadloss=.25 XHL=2 conns=[delta, wye] ppm_antifloat=0
New Transformer.IDSeta_25 phases=3 wdg=1 bus=1307.1.2.3 kv=13.2 kVA=25 wdg=2 bus=X_25.1.2.3 kv=0.38  kVA=25 %imag=0.5 %loadloss=1.5 %noloadloss=.25 XHL=2 conns=[delta, wye] ppm_antifloat=0
New Transformer.IDSeta_27 phases=3 wdg=1 bus=1335.1.2.3 kv=13.2 kVA=80 wdg=2 bus=X_27.1.2.3 kv=0.38  kVA=80 %imag=0.5 %loadloss=1.5 %noloadloss=.25 XHL=2 conns=[delta, wye] ppm_antifloat=0
New Transformer.IDSeta_60 phases=3 wdg=1 bus=1255.1.2.3 kv=13.2 kVA=200 wdg=2 bus=X_60.1.2.3 kv=0.38  kVA=200 %imag=0.5 %loadloss=1.5 %noloadloss=.25 XHL=2 conns=[delta, wye] ppm_antifloat=0
New Transformer.IDSeta_378 phases=3 wdg=1 bus=272.1.2.3 kv=13.2 kVA=160 wdg=2 bus=X_378.1.2.3 kv=0.38  kVA=160 %imag=0.5 %loadloss=1.5 %noloadloss=.25 XHL=2 conns=[delta, wye] ppm_antifloat=0
New Transformer.IDSeta_401 phases=3 wdg=1 bus=1148.1.2.3 kv=13.2 kVA=16 wdg=2 bus=X_401.1.2.3 kv=0.38  kVA=16 %imag=0.5 %loadloss=1.5 %noloadloss=.25 XHL=2 conns=[delta, wye] ppm_antifloat=0
New Transformer.IDSeta_2977 phases=3 wdg=1 bus=998.1.2.3 kv=13.2 kVA=63 wdg=2 bus=X_2977.1.2.3 kv=0.38  kVA=63 %imag=0.5 %loadloss=1.5 %noloadloss=.25 XHL=2 conns=[delta, wye] ppm_antifloat=0
New Transformer.IDSeta_2978 phases=3 wdg=1 bus=630.1.2.3 kv=13.2 kVA=80 wdg=2 bus=X_2978.1.2.3 kv=0.38  kVA=80 %imag=0.5 %loadloss=1.5 %noloadloss=.25 XHL=2 conns=[delta, wye] ppm_antifloat=0
New Transformer.IDSeta_2979 phases=3 wdg=1 bus=593.1.2.3 kv=13.2 kVA=100 wdg=2 bus=X_2979.1.2.3 kv=0.38  kVA=100 %imag=0.5 %loadloss=1.5 %noloadloss=.25 XHL=2 conns=[delta, wye] ppm_antifloat=0
New Transformer.IDSeta_2981 phases=3 wdg=1 bus=95.1.2.3 kv=13.2 kVA=40 wdg=2 bus=X_2981.1.2.3 kv=0.38  kVA=40 %imag=0.5 %loadloss=1.5 %noloadloss=.25 XHL=2 conns=[delta, wye] ppm_antifloat=0
New Transformer.IDSeta_2983 phases=3 wdg=1 bus=500.1.2.3 kv=13.2 kVA=630 wdg=2 bus=BusMT_500.1.2.3 kv=33  kVA=630 %imag=0.5  %loadloss=1.5 %noloadloss=.25 XHL=2 conns=[delta, delta]
New Transformer.IDSeta_2984 phases=3 wdg=1 bus=1173.1.2.3 kv=13.2 kVA=500 wdg=2 bus=X_2984.1.2.3 kv=0.38  kVA=500 %imag=0.5 %loadloss=1.5 %noloadloss=.25 XHL=2 conns=[delta, wye] ppm_antifloat=0
New Transformer.IDSeta_2987 phases=3 wdg=1 bus=1592.1.2.3 kv=13.2 kVA=25 wdg=2 bus=X_2987.1.2.3 kv=0.38  kVA=25 %imag=0.5 %loadloss=1.5 %noloadloss=.25 XHL=2 conns=[delta, wye] ppm_antifloat=0
New Transformer.IDSeta_2993 phases=3 wdg=1 bus=660.1.2.3 kv=13.2 kVA=5 wdg=2 bus=X_2993.1.2.3 kv=0.38  kVA=5 %imag=0.5 %loadloss=1.5 %noloadloss=.25 XHL=2 conns=[delta, wye] ppm_antifloat=0
New Transformer.IDSeta_2996 phases=3 wdg=1 bus=616.1.2.3 kv=13.2 kVA=315 wdg=2 bus=X_2996.1.2.3 kv=0.38  kVA=315 %imag=0.5 %loadloss=1.5 %noloadloss=.25 XHL=2 conns=[delta, wye] ppm_antifloat=0
New Transformer.IDSeta_2997 phases=3 wdg=1 bus=1579.1.2.3 kv=13.2 kVA=100 wdg=2 bus=X_2997.1.2.3 kv=0.38  kVA=100 %imag=0.5 %loadloss=1.5 %noloadloss=.25 XHL=2 conns=[delta, wye] ppm_antifloat=0
New Transformer.IDSeta_2999 phases=3 wdg=1 bus=703.1.2.3 kv=13.2 kVA=25 wdg=2 bus=X_2999.1.2.3 kv=0.38  kVA=25 %imag=0.5 %loadloss=1.5 %noloadloss=.25 XHL=2 conns=[delta, wye] ppm_antifloat=0
New Transformer.IDSeta_33 phases=3 wdg=1 bus=1336.1.2.3 kv=13.2 kVA=160 wdg=2 bus=X_33.1.2.3 kv=0.38  kVA=160 %imag=0.5 %loadloss=1.5 %noloadloss=.25 XHL=2 conns=[delta, wye] ppm_antifloat=0
New Transformer.IDSeta_45 phases=3 wdg=1 bus=397.1.2.3 kv=13.2 kVA=400 wdg=2 bus=X_45.1.2.3 kv=0.38  kVA=400 %imag=0.5 %loadloss=1.5 %noloadloss=.25 XHL=2 conns=[delta, wye] ppm_antifloat=0
New Transformer.IDSeta_47 phases=3 wdg=1 bus=383.1.2.3 kv=13.2 kVA=100 wdg=2 bus=X_47.1.2.3 kv=0.38  kVA=100 %imag=0.5 %loadloss=1.5 %noloadloss=.25 XHL=2 conns=[delta, wye] ppm_antifloat=0
New Transformer.IDSeta_3000 phases=3 wdg=1 bus=360.1.2.3 kv=13.2 kVA=40 wdg=2 bus=X_3000.1.2.3 kv=0.38  kVA=40 %imag=0.5 %loadloss=1.5 %noloadloss=.25 XHL=2 conns=[delta, wye] ppm_antifloat=0
New Transformer.IDSeta_3001 phases=3 wdg=1 bus=128.1.2.3 kv=13.2 kVA=80 wdg=2 bus=X_3001.1.2.3 kv=0.38  kVA=80 %imag=0.5 %loadloss=1.5 %noloadloss=.25 XHL=2 conns=[delta, wye] ppm_antifloat=0
New Transformer.IDSeta_3002 phases=3 wdg=1 bus=138.1.2.3 kv=13.2 kVA=63 wdg=2 bus=X_3002.1.2.3 kv=0.38  kVA=63 %imag=0.5 %loadloss=1.5 %noloadloss=.25 XHL=2 conns=[delta, wye] ppm_antifloat=0
New Transformer.IDSeta_3003 phases=3 wdg=1 bus=1316.1.2.3 kv=13.2 kVA=160 wdg=2 bus=X_3003.1.2.3 kv=0.38  kVA=160 %imag=0.5 %loadloss=1.5 %noloadloss=.25 XHL=2 conns=[delta, wye] ppm_antifloat=0
New Transformer.IDSeta_3006 phases=3 wdg=1 bus=1291.1.2.3 kv=13.2 kVA=200 wdg=2 bus=X_3006.1.2.3 kv=0.38  kVA=200 %imag=0.5 %loadloss=1.5 %noloadloss=.25 XHL=2 conns=[delta, wye] ppm_antifloat=0
New Transformer.IDSeta_3009 phases=3 wdg=1 bus=209.1.2.3 kv=13.2 kVA=315 wdg=2 bus=X_3009.1.2.3 kv=0.38  kVA=315 %imag=0.5 %loadloss=1.5 %noloadloss=.25 XHL=2 conns=[delta, wye] ppm_antifloat=0
New Transformer.IDSeta_3010 phases=3 wdg=1 bus=728.1.2.3 kv=13.2 kVA=25 wdg=2 bus=X_3010.1.2.3 kv=0.38  kVA=25 %imag=0.5 %loadloss=1.5 %noloadloss=.25 XHL=2 conns=[delta, wye] ppm_antifloat=0
New Transformer.IDSeta_3011 phases=3 wdg=1 bus=63.1.2.3 kv=13.2 kVA=40 wdg=2 bus=X_3011.1.2.3 kv=0.38  kVA=40 %imag=0.5 %loadloss=1.5 %noloadloss=.25 XHL=2 conns=[delta, wye] ppm_antifloat=0
New Transformer.IDSeta_3012 phases=3 wdg=1 bus=1273.1.2.3 kv=13.2 kVA=125 wdg=2 bus=X_3012.1.2.3 kv=0.38  kVA=125 %imag=0.5 %loadloss=1.5 %noloadloss=.25 XHL=2 conns=[delta, wye] ppm_antifloat=0
New Transformer.IDSeta_3013 phases=3 wdg=1 bus=1029.1.2.3 kv=13.2 kVA=160 wdg=2 bus=X_3013.1.2.3 kv=0.38  kVA=160 %imag=0.5 %loadloss=1.5 %noloadloss=.25 XHL=2 conns=[delta, wye] ppm_antifloat=0
New Transformer.IDSeta_3014 phases=3 wdg=1 bus=1074.1.2.3 kv=13.2 kVA=40 wdg=2 bus=X_3014.1.2.3 kv=0.38  kVA=40 %imag=0.5 %loadloss=1.5 %noloadloss=.25 XHL=2 conns=[delta, wye] ppm_antifloat=0
New Transformer.IDSeta_3015 phases=3 wdg=1 bus=1599.1.2.3 kv=13.2 kVA=63 wdg=2 bus=X_3015.1.2.3 kv=0.38  kVA=63 %imag=0.5 %loadloss=1.5 %noloadloss=.25 XHL=2 conns=[delta, wye] ppm_antifloat=0
New Transformer.IDSeta_3016 phases=3 wdg=1 bus=1099.1.2.3 kv=13.2 kVA=100 wdg=2 bus=X_3016.1.2.3 kv=0.38  kVA=100 %imag=0.5 %loadloss=1.5 %noloadloss=.25 XHL=2 conns=[delta, wye] ppm_antifloat=0
New Transformer.IDSeta_3017 phases=3 wdg=1 bus=1318 kv=13.2 kVA=100 wdg=2 bus=X_3017.1.2.3 kv=0.38 kVA=100 %imag=0.5 %loadloss=1.5 %noloadloss=.25 XHL=2 conns=[delta, wye] ppm_antifloat=0
New Transformer.IDSeta_3019 phases=3 wdg=1 bus=304.1.2.3 kv=13.2 kVA=40 wdg=2 bus=X_3019.1.2.3 kv=0.38  kVA=40 %imag=0.5 %loadloss=1.5 %noloadloss=.25 XHL=2 conns=[delta, wye] ppm_antifloat=0
New Transformer.IDSeta_3020 phases=3 wdg=1 bus=1066.1.2.3 kv=13.2 kVA=63 wdg=2 bus=X_3020.1.2.3 kv=0.38  kVA=63 %imag=0.5 %loadloss=1.5 %noloadloss=.25 XHL=2 conns=[delta, wye] ppm_antifloat=0
New Transformer.IDSeta_3021 phases=3 wdg=1 bus=308.1.2.3 kv=13.2 kVA=315 wdg=2 bus=X_3021.1.2.3 kv=0.38  kVA=315 %imag=0.5 %loadloss=1.5 %noloadloss=.25 XHL=2 conns=[delta, wye] ppm_antifloat=0
New Transformer.IDSeta_3117 phases=3 wdg=1 bus=1086.1.2.3 kv=13.2 kVA=80 wdg=2 bus=X_3117.1.2.3 kv=0.38  kVA=80 %imag=0.5 %loadloss=1.5 %noloadloss=.25 XHL=2 conns=[delta, wye] ppm_antifloat=0
New Transformer.IDSeta_5001 phases=3 wdg=1 bus=1438.1.2.3 kv=33 kVA=25 wdg=2 bus=X_5001.1.2.3 kv=0.38 kVA=25 %imag=0.5 %loadloss=1.5  %noloadloss=.25 XHL=2 conns=[delta, wye] ppm_antifloat=0
New Transformer.IDSeta_5002 phases=3 wdg=1 bus=1442.1.2.3 kv=33 kVA=16 wdg=2 bus=X_5002.1.2.3 kv=0.38 kVA=16 %imag=0.5 %loadloss=1.5  %noloadloss=.25 XHL=2 conns=[delta, wye] ppm_antifloat=0
New Transformer.IDSeta_5007 phases=3 wdg=1 bus=515.1.2.3 kv=33 kVA=5 wdg=2 bus=X_5007.1.2.3 kv=0.38 kVA=5 %imag=0.5 %loadloss=1.5  %noloadloss=.25 XHL=2 conns=[delta, wye] ppm_antifloat=0
New Transformer.IDSeta_48 phases=3 wdg=1 bus=1606.1.2.3 kv=13.2 kVA=200 wdg=2 bus=X_48.1.2.3 kv=0.38  kVA=200 %imag=0.5 %loadloss=1.5 %noloadloss=.25 XHL=2 conns=[delta, wye] ppm_antifloat=0
New Transformer.IDSeta_49 phases=3 wdg=1 bus=1267.1.2.3 kv=13.2 kVA=315 wdg=2 bus=X_49.1.2.3 kv=0.38  kVA=315 %imag=0.5 %loadloss=1.5 %noloadloss=.25 XHL=2 conns=[delta, wye] ppm_antifloat=0
New Transformer.IDSeta_52 phases=3 wdg=1 bus=317.1.2.3 kv=13.2 kVA=315 wdg=2 bus=X_52.1.2.3 kv=0.38  kVA=315 %imag=0.5 %loadloss=1.5 %noloadloss=.25 XHL=2 conns=[delta, wye] ppm_antifloat=0
New Transformer.IDSeta_53 phases=3 wdg=1 bus=1270.1.2.3 kv=13.2 kVA=200 wdg=2 bus=X_53.1.2.3 kv=0.38  kVA=200 %imag=0.5 %loadloss=1.5 %noloadloss=.25 XHL=2 conns=[delta, wye] ppm_antifloat=0
New Transformer.IDSeta_54 phases=3 wdg=1 bus=1547.1.2.3 kv=13.2 kVA=315 wdg=2 bus=X_54.1.2.3 kv=0.38  kVA=315 %imag=0.5 %loadloss=1.5 %noloadloss=.25 XHL=2 conns=[delta, wye] ppm_antifloat=0
New Transformer.IDSeta_55 phases=3 wdg=1 bus=260.1.2.3 kv=13.2 kVA=315 wdg=2 bus=X_55.1.2.3 kv=0.38  kVA=315 %imag=0.5 %loadloss=1.5 %noloadloss=.25 XHL=2 conns=[delta, wye] ppm_antifloat=0
New Transformer.IDSeta_56 phases=3 wdg=1 bus=1262.1.2.3 kv=13.2 kVA=315 wdg=2 bus=X_56.1.2.3 kv=0.38  kVA=315 %imag=0.5 %loadloss=1.5 %noloadloss=.25 XHL=2 conns=[delta, wye] ppm_antifloat=0
New Transformer.IDSeta_5008 phases=3 wdg=1 bus=1490.1.2.3 kv=33 kVA=25 wdg=2 bus=X_5008.1.2.3 kv=0.38 kVA=25 %imag=0.5 %loadloss=1.5  %noloadloss=.25 XHL=2 conns=[delta, wye] ppm_antifloat=0
New Transformer.IDSeta_5009 phases=3 wdg=1 bus=539.1.2.3 kv=33 kVA=63 wdg=2 bus=X_5009.1.2.3 kv=0.38 kVA=63 %imag=0.5 %loadloss=1.5  %noloadloss=.25 XHL=2 conns=[delta, wye] ppm_antifloat=0
New Transformer.IDSeta_5012 phases=3 wdg=1 bus=480.1.2.3 kv=13.2 kVA=5 wdg=2 bus=X_5012.1.2.3 kv=0.38  kVA=5 %imag=0.5 %loadloss=1.5 %noloadloss=.25 XHL=2 conns=[delta, wye] ppm_antifloat=0
New Transformer.IDSeta_5013 phases=3 wdg=1 bus=893.1.2.3 kv=13.2 kVA=10 wdg=2 bus=X_5013.1.2.3 kv=0.38  kVA=10 %imag=0.5 %loadloss=1.5 %noloadloss=.25 XHL=2 conns=[delta, wye] ppm_antifloat=0
New Transformer.IDSeta_5014 phases=3 wdg=1 bus=547.1.2.3 kv=33 kVA=80 wdg=2 bus=BusMT_547.1.2.3 kv=13.2 kVA=80 %imag=0.5 %loadloss=1.5 %noloadloss=.25 XHL=2 conns=[delta, delta]
New Transformer.IDSeta_5015 phases=3 wdg=1 bus=896.1.2.3 kv=13.2 kVA=100 wdg=2 bus=X_5015.1.2.3 kv=0.38  kVA=100 %imag=0.5 %loadloss=1.5 %noloadloss=.25 XHL=2 conns=[delta, wye] ppm_antifloat=0
New Transformer.IDSeta_5016 phases=3 wdg=1 bus=892.1.2.3 kv=13.2 kVA=10 wdg=2 bus=X_5016.1.2.3 kv=0.38  kVA=10 %imag=0.5 %loadloss=1.5 %noloadloss=.25 XHL=2 conns=[delta, wye] ppm_antifloat=0
New Transformer.IDSeta_5017 phases=3 wdg=1 bus=489.1.2.3 kv=13.2 kVA=5 wdg=2 bus=X_5017.1.2.3 kv=0.38  kVA=5 %imag=0.5 %loadloss=1.5 %noloadloss=.25 XHL=2 conns=[delta, wye] ppm_antifloat=0
New Transformer.IDSeta_5018 phases=3 wdg=1 bus=885.1.2.3 kv=13.2 kVA=5 wdg=2 bus=X_5018.1.2.3 kv=0.38  kVA=5 %imag=0.5 %loadloss=1.5 %noloadloss=.25 XHL=2 conns=[delta, wye] ppm_antifloat=0
New Transformer.IDSeta_5019 phases=3 wdg=1 bus=479.1.2.3 kv=13.2 kVA=63 wdg=2 bus=X_5019.1.2.3 kv=0.38  kVA=63 %imag=0.5 %loadloss=1.5 %noloadloss=.25 XHL=2 conns=[delta, wye] ppm_antifloat=0
New Transformer.IDSeta_5025 phases=3 wdg=1 bus=872.1.2.3 kv=13.2 kVA=16 wdg=2 bus=X_5025.1.2.3 kv=0.38  kVA=16 %imag=0.5 %loadloss=1.5 %noloadloss=.25 XHL=2 conns=[delta, wye] ppm_antifloat=0
New Transformer.IDSeta_5026 phases=3 wdg=1 bus=1427.1.2.3 kv=33 kVA=16 wdg=2 bus=X_5026.1.2.3 kv=0.38 kVA=16 %imag=0.5 %loadloss=1.5  %noloadloss=.25 XHL=2 conns=[delta, wye] ppm_antifloat=0
New Transformer.IDSeta_5027 phases=3 wdg=1 bus=880.1.2.3 kv=13.2 kVA=10 wdg=2 bus=X_5027.1.2.3 kv=0.38  kVA=10 %imag=0.5 %loadloss=1.5 %noloadloss=.25 XHL=2 conns=[delta, wye] ppm_antifloat=0
New Transformer.IDSeta_5028 phases=3 wdg=1 bus=488.1.2.3 kv=13.2 kVA=5 wdg=2 bus=X_5028.1.2.3 kv=0.38  kVA=5 %imag=0.5 %loadloss=1.5 %noloadloss=.25 XHL=2 conns=[delta, wye] ppm_antifloat=0
New Transformer.IDSeta_57 phases=3 wdg=1 bus=1225.1.2.3 kv=13.2 kVA=315 wdg=2 bus=X_57.1.2.3 kv=0.38  kVA=315 %imag=0.5 %loadloss=1.5 %noloadloss=.25 XHL=2 conns=[delta, wye] ppm_antifloat=0
New Transformer.IDSeta_59 phases=3 wdg=1 bus=1256.1.2.3 kv=13.2 kVA=315 wdg=2 bus=X_59.1.2.3 kv=0.38  kVA=315 %imag=0.5 %loadloss=1.5 %noloadloss=.25 XHL=2 conns=[delta, wye] ppm_antifloat=0
New Transformer.IDSeta_61 phases=3 wdg=1 bus=1242.1.2.3 kv=13.2 kVA=250 wdg=2 bus=X_61.1.2.3 kv=0.38  kVA=250 %imag=0.5 %loadloss=1.5 %noloadloss=.25 XHL=2 conns=[delta, wye] ppm_antifloat=0
New Transformer.IDSeta_71 phases=3 wdg=1 bus=1207.1.2.3 kv=13.2 kVA=200 wdg=2 bus=X_71.1.2.3 kv=0.38  kVA=200 %imag=0.5 %loadloss=1.5 %noloadloss=.25 XHL=2 conns=[delta, wye] ppm_antifloat=0
New Transformer.IDSeta_72 phases=3 wdg=1 bus=329.1.2.3 kv=13.2 kVA=200 wdg=2 bus=X_72.1.2.3 kv=0.38  kVA=200 %imag=0.5 %loadloss=1.5 %noloadloss=.25 XHL=2 conns=[delta, wye] ppm_antifloat=0
New Transformer.IDSeta_75 phases=3 wdg=1 bus=1200.1.2.3 kv=13.2 kVA=100 wdg=2 bus=X_75.1.2.3 kv=0.38  kVA=100 %imag=0.5 %loadloss=1.5 %noloadloss=.25 XHL=2 conns=[delta, wye] ppm_antifloat=0
New Transformer.IDSeta_76 phases=3 wdg=1 bus=1218.1.2.3 kv=13.2 kVA=315 wdg=2 bus=X_76.1.2.3 kv=0.38  kVA=315 %imag=0.5 %loadloss=1.5 %noloadloss=.25 XHL=2 conns=[delta, wye] ppm_antifloat=0
New Transformer.IDSeta_77 phases=3 wdg=1 bus=197.1.2.3 kv=13.2 kVA=200 wdg=2 bus=X_77.1.2.3 kv=0.38  kVA=200 %imag=0.5 %loadloss=1.5 %noloadloss=.25 XHL=2 conns=[delta, wye] ppm_antifloat=0
New Transformer.IDSeta_78 phases=3 wdg=1 bus=1271.1.2.3 kv=13.2 kVA=200 wdg=2 bus=X_78.1.2.3 kv=0.38  kVA=200 %imag=0.5 %loadloss=1.5 %noloadloss=.25 XHL=2 conns=[delta, wye] ppm_antifloat=0
New Transformer.IDSeta_433 phases=3 wdg=1 bus=1004.1.2.3 kv=13.2 kVA=100 wdg=2 bus=X_433.1.2.3 kv=0.38  kVA=100 %imag=0.5 %loadloss=1.5 %noloadloss=.25 XHL=2 conns=[delta, wye] ppm_antifloat=0
New Transformer.IDSeta_439 phases=3 wdg=1 bus=1587.1.2.3 kv=13.2 kVA=63 wdg=2 bus=X_439.1.2.3 kv=0.38  kVA=63 %imag=0.5 %loadloss=1.5 %noloadloss=.25 XHL=2 conns=[delta, wye] ppm_antifloat=0
New Transformer.IDSeta_505 phases=3 wdg=1 bus=1308.1.2.3 kv=13.2 kVA=250 wdg=2 bus=X_505.1.2.3 kv=0.38  kVA=250 %imag=0.5 %loadloss=1.5 %noloadloss=.25 XHL=2 conns=[delta, wye] ppm_antifloat=0
New Transformer.IDSeta_520 phases=3 wdg=1 bus=398.1.2.3 kv=13.2 kVA=100 wdg=2 bus=X_520.1.2.3 kv=0.38  kVA=100 %imag=0.5 %loadloss=1.5 %noloadloss=.25 XHL=2 conns=[delta, wye] ppm_antifloat=0
New Transformer.IDSeta_523 phases=3 wdg=1 bus=1183.1.2.3 kv=13.2 kVA=75 wdg=2 bus=X_523.1.2.3 kv=0.38  kVA=75 %imag=0.5 %loadloss=1.5 %noloadloss=.25 XHL=2 conns=[delta, wye] ppm_antifloat=0
New Transformer.IDSeta_524 phases=3 wdg=1 bus=11.1.2.3 kv=13.2 kVA=63 wdg=2 bus=X_524.1.2.3 kv=0.38  kVA=63 %imag=0.5 %loadloss=1.5 %noloadloss=.25 XHL=2 conns=[delta, wye] ppm_antifloat=0
New Transformer.IDSeta_527 phases=3 wdg=1 bus=1508.1.2.3 kv=13.2 kVA=100 wdg=2 bus=X_527.1.2.3 kv=0.38  kVA=100 %imag=0.5 %loadloss=1.5 %noloadloss=.25 XHL=2 conns=[delta, wye] ppm_antifloat=0
New Transformer.IDSeta_833 phases=3 wdg=1 bus=1182.1.2.3 kv=13.2 kVA=80 wdg=2 bus=X_833.1.2.3 kv=0.38  kVA=80 %imag=0.5 %loadloss=1.5 %noloadloss=.25 XHL=2 conns=[delta, wye] ppm_antifloat=0
New Transformer.IDSeta_835 phases=3 wdg=1 bus=577.1.2.3 kv=13.2 kVA=160 wdg=2 bus=X_835.1.2.3 kv=0.38  kVA=160 %imag=0.5 %loadloss=1.5 %noloadloss=.25 XHL=2 conns=[delta, wye] ppm_antifloat=0
New Transformer.IDSeta_840 phases=3 wdg=1 bus=1189.1.2.3 kv=13.2 kVA=160 wdg=2 bus=X_840.1.2.3 kv=0.38  kVA=160 %imag=0.5 %loadloss=1.5 %noloadloss=.25 XHL=2 conns=[delta, wye] ppm_antifloat=0
New Transformer.IDSeta_859 phases=3 wdg=1 bus=1034.1.2.3 kv=13.2 kVA=63 wdg=2 bus=X_859.1.2.3 kv=0.38  kVA=63 %imag=0.5 %loadloss=1.5 %noloadloss=.25 XHL=2 conns=[delta, wye] ppm_antifloat=0
New Transformer.IDSeta_956 phases=3 wdg=1 bus=641.1.2.3 kv=13.2 kVA=63 wdg=2 bus=X_956.1.2.3 kv=0.38  kVA=63 %imag=0.5 %loadloss=1.5 %noloadloss=.25 XHL=2 conns=[delta, wye] ppm_antifloat=0
New Transformer.IDSeta_957 phases=3 wdg=1 bus=640.1.2.3 kv=13.2 kVA=40 wdg=2 bus=X_957.1.2.3 kv=0.38  kVA=40 %imag=0.5 %loadloss=1.5 %noloadloss=.25 XHL=2 conns=[delta, wye] ppm_antifloat=0
New Transformer.IDSeta_958 phases=3 wdg=1 bus=684.1.2.3 kv=13.2 kVA=80 wdg=2 bus=X_958.1.2.3 kv=0.38  kVA=80 %imag=0.5 %loadloss=1.5 %noloadloss=.25 XHL=2 conns=[delta, wye] ppm_antifloat=0
New Transformer.IDSeta_1067 phases=3 wdg=1 bus=726.1.2.3 kv=13.2 kVA=100 wdg=2 bus=X_1067.1.2.3 kv=0.38  kVA=100 %imag=0.5 %loadloss=1.5 %noloadloss=.25 XHL=2 conns=[delta, wye] ppm_antifloat=0
New Transformer.IDSeta_1106 phases=3 wdg=1 bus=1137.1.2.3 kv=13.2 kVA=100 wdg=2 bus=X_1106.1.2.3 kv=0.38  kVA=100 %imag=0.5 %loadloss=1.5 %noloadloss=.25 XHL=2 conns=[delta, wye] ppm_antifloat=0
New Transformer.IDSeta_1231 phases=3 wdg=1 bus=1145.1.2.3 kv=13.2 kVA=5 wdg=2 bus=X_1231.1.2.3 kv=0.38  kVA=5 %imag=0.5 %loadloss=1.5 %noloadloss=.25 XHL=2 conns=[delta, wye] ppm_antifloat=0
New Transformer.IDSeta_1355 phases=3 wdg=1 bus=1128.1.2.3 kv=13.2 kVA=80 wdg=2 bus=X_1355.1.2.3 kv=0.38  kVA=80 %imag=0.5 %loadloss=1.5 %noloadloss=.25 XHL=2 conns=[delta, wye] ppm_antifloat=0
New Transformer.IDSeta_1357 phases=3 wdg=1 bus=659.1.2.3 kv=13.2 kVA=5 wdg=2 bus=X_1357.1.2.3 kv=0.38  kVA=5 %imag=0.5 %loadloss=1.5 %noloadloss=.25 XHL=2 conns=[delta, wye] ppm_antifloat=0
New Transformer.IDSeta_1374 phases=3 wdg=1 bus=49.1.2.3 kv=13.2 kVA=100 wdg=2 bus=X_1374.1.2.3 kv=0.38  kVA=100 %imag=0.5 %loadloss=1.5 %noloadloss=.25 XHL=2 conns=[delta, wye] ppm_antifloat=0
New Transformer.IDSeta_1382 phases=3 wdg=1 bus=656.1.2.3 kv=13.2 kVA=40 wdg=2 bus=X_1382.1.2.3 kv=0.38  kVA=40 %imag=0.5 %loadloss=1.5 %noloadloss=.25 XHL=2 conns=[delta, wye] ppm_antifloat=0
New Transformer.IDSeta_1488 phases=3 wdg=1 bus=717.1.2.3 kv=13.2 kVA=80 wdg=2 bus=X_1488.1.2.3 kv=0.38  kVA=80 %imag=0.5 %loadloss=1.5 %noloadloss=.25 XHL=2 conns=[delta, wye] ppm_antifloat=0
New Transformer.IDSeta_1649 phases=3 wdg=1 bus=706.1.2.3 kv=13.2 kVA=5 wdg=2 bus=X_1649.1.2.3 kv=0.38  kVA=5 %imag=0.5 %loadloss=1.5 %noloadloss=.25 XHL=2 conns=[delta, wye] ppm_antifloat=0
New Transformer.IDSeta_1759 phases=3 wdg=1 bus=729.1.2.3 kv=13.2 kVA=63 wdg=2 bus=X_1759.1.2.3 kv=0.38  kVA=63 %imag=0.5 %loadloss=1.5 %noloadloss=.25 XHL=2 conns=[delta, wye] ppm_antifloat=0
New Transformer.IDSeta_1874 phases=3 wdg=1 bus=1052.1.2.3 kv=13.2 kVA=40 wdg=2 bus=X_1874.1.2.3 kv=0.38  kVA=40 %imag=0.5 %loadloss=1.5 %noloadloss=.25 XHL=2 conns=[delta, wye] ppm_antifloat=0
New Transformer.IDSeta_1945 phases=3 wdg=1 bus=124.1.2.3 kv=13.2 kVA=200 wdg=2 bus=X_1945.1.2.3 kv=0.38  kVA=200 %imag=0.5 %loadloss=1.5 %noloadloss=.25 XHL=2 conns=[delta, wye] ppm_antifloat=0
New Transformer.IDSeta_1951 phases=3 wdg=1 bus=1169.1.2.3 kv=13.2 kVA=40 wdg=2 bus=X_1951.1.2.3 kv=0.38  kVA=40 %imag=0.5 %loadloss=1.5 %noloadloss=.25 XHL=2 conns=[delta, wye] ppm_antifloat=0
New Transformer.IDSeta_1973 phases=3 wdg=1 bus=408.1.2.3 kv=13.2 kVA=40 wdg=2 bus=X_1973.1.2.3 kv=0.38  kVA=40 %imag=0.5 %loadloss=1.5 %noloadloss=.25 XHL=2 conns=[delta, wye] ppm_antifloat=0
New Transformer.IDSeta_22 phases=3 wdg=1 bus=274.1.2.3 kv=13.2 kVA=100 wdg=2 bus=X_22.1.2.3 kv=0.38  kVA=100 %imag=0.5 %loadloss=1.5 %noloadloss=.25 XHL=2 conns=[delta, wye] ppm_antifloat=0
New Transformer.IDSeta_58 phases=3 wdg=1 bus=214.1.2.3 kv=13.2 kVA=160 wdg=2 bus=X_58.1.2.3 kv=0.38  kVA=160 %imag=0.5 %loadloss=1.5 %noloadloss=.25 XHL=2 conns=[delta, wye] ppm_antifloat=0
New Transformer.IDSeta_560 phases=3 wdg=1 bus=104.1.2.3 kv=13.2 kVA=100 wdg=2 bus=X_560.1.2.3 kv=0.38  kVA=100 %imag=0.5 %loadloss=1.5 %noloadloss=.25 XHL=2 conns=[delta, wye] ppm_antifloat=0
New Transformer.IDSeta_2109 phases=3 wdg=1 bus=985.1.2.3 kv=13.2 kVA=40 wdg=2 bus=X_2109.1.2.3 kv=0.38  kVA=40 %imag=0.5 %loadloss=1.5 %noloadloss=.25 XHL=2 conns=[delta, wye] ppm_antifloat=0
New Transformer.IDSeta_2228 phases=3 wdg=1 bus=1776 kv=13.2 kVA=5 wdg=2 bus=X_2228.1.2.3 kv=0.38 kVA=5 %imag=0.5 %loadloss=1.5 %noloadloss=.25 XHL=2 conns=[delta, wye] ppm_antifloat=0
New Transformer.IDSeta_2242 phases=3 wdg=1 bus=452.1.2.3 kv=13.2 kVA=50 wdg=2 bus=X_2242.1.2.3 kv=0.38  kVA=50 %imag=0.5 %loadloss=1.5 %noloadloss=.25 XHL=2 conns=[delta, wye] ppm_antifloat=0
New Transformer.IDSeta_2258 phases=3 wdg=1 bus=1164.1.2.3 kv=13.2 kVA=80 wdg=2 bus=X_2258.1.2.3 kv=0.38  kVA=80 %imag=0.5 %loadloss=1.5 %noloadloss=.25 XHL=2 conns=[delta, wye] ppm_antifloat=0
New Transformer.IDSeta_2792 phases=3 wdg=1 bus=688.1.2.3 kv=13.2 kVA=200 wdg=2 bus=X_2792.1.2.3 kv=0.38  kVA=200 %imag=0.5 %loadloss=1.5 %noloadloss=.25 XHL=2 conns=[delta, wye] ppm_antifloat=0
New Transformer.IDSeta_2794 phases=3 wdg=1 bus=1796.1.2.3 kv=13.2 kVA=63 wdg=2 bus=X_2794.1.2.3 kv=0.38  kVA=63 %imag=0.5 %loadloss=1.5 %noloadloss=.25 XHL=2 conns=[delta, wye] ppm_antifloat=0
New Transformer.IDSeta_2795 phases=3 wdg=1 bus=600.1.2.3 kv=13.2 kVA=40 wdg=2 bus=X_2795.1.2.3 kv=0.38  kVA=40 %imag=0.5 %loadloss=1.5 %noloadloss=.25 XHL=2 conns=[delta, wye] ppm_antifloat=0
...
