dss/import/capas-pablo/Formato-plugin/completo/Demanda_Escenario_enero_2023_Caso_1.txt
New Load.Carga_IDSeta_2943 phases=3 bus1=X_2943.1.2.3.0 kv=0.38 kW=145.64501657521188 pf=0.9 status=variable model=1 CVRwatts=0.8 CVRvars=3 Class=1 daily=334 conn=wye
New Load.Carga_IDSeta_3012 phases=3 bus1=X_3012.1.2.3.0 kv=0.38 kW=72.00706915074633 pf=0.9 status=variable model=1 CVRwatts=0.8 CVRvars=3 Class=1 daily=335 conn=wye
New Load.Carga_IDSeta_2982 phases=3 bus1=X_2982.1.2.3.0 kv=0.38 kW=9.988182040111642 pf=0.9 status=variable model=1 CVRwatts=0.8 CVRvars=3 Class=1 daily=333 conn=wye
New Load.Carga_IDSeta_2986 phases=3 bus1=X_2986.1.2.3.0 kv=0.38 kW=54.139472167453654 pf=0.9 status=variable model=1 CVRwatts=0.8 CVRvars=3 Class=1 daily=333 conn=wye
New Load.Carga_IDSeta_205 phases=3 bus1=X_205.1.2.3.0 kv=0.38 kW=3.4671814775458443 pf=0.9 status=variable model=1 CVRwatts=0.8 CVRvars=3 Class=1 daily=332 conn=wye
New Load.Carga_IDSeta_1354 phases=3 bus1=X_1354.1.2.3.0 kv=0.38 kW=5.966610716355598 pf=0.9 status=variable model=1 CVRwatts=0.8 CVRvars=3 Class=1 daily=332 conn=wye
New Load.Carga_IDSeta_2073 phases=3 bus1=X_2073.1.2.3.0 kv=0.38 kW=5.305408933687292 pf=0.9 status=variable model=1 CVRwatts=0.8 CVRvars=3 Class=1 daily=332 conn=wye
New Load.Carga_IDSeta_828 phases=3 bus1=X_828.1.2.3.0 kv=0.38 kW=11.240424895014478 pf=0.9 status=variable model=1 CVRwatts=0.8 CVRvars=3 Class=1 daily=333 conn=wye
New Load.Carga_IDSeta_115 phases=3 bus1=X_115.1.2.3.0 kv=0.38 kW=21.736829812253053 pf=0.9 status=variable model=1 CVRwatts=0.8 CVRvars=3 Class=1 daily=333 conn=wye
New Load.Carga_IDSeta_1245 phases=3 bus1=X_1245.1.2.3.0 kv=0.38 kW=21.33594997450506 pf=0.9 status=variable model=1 CVRwatts=0.8 CVRvars=3 Class=1 daily=332 conn=wye
New Load.Carga_IDSeta_848 phases=3 bus1=X_848.1.2.3.0 kv=0.38 kW=15.513426813694617 pf=0.9 status=variable model=1 CVRwatts=0.8 CVRvars=3 Class=1 daily=332 conn=wye
New Load.Carga_IDSeta_1945 phases=3 bus1=X_1945.1.2.3.0 kv=0.38 kW=76.16926972363206 pf=0.9 status=variable model=1 CVRwatts=0.8 CVRvars=3 Class=1 daily=332 conn=wye
New Load.Carga_IDSeta_2970 phases=3 bus1=X_2970.1.2.3.0 kv=0.38 kW=6.303770817307852 pf=0.9 status=variable model=1 CVRwatts=0.8 CVRvars=3 Class=1 daily=332 conn=wye
New Load.Carga_IDSeta_2971 phases=3 bus1=X_2971.1.2.3.0 kv=0.38 kW=55.05934366088513 pf=0.9 status=variable model=1 CVRwatts=0.8 CVRvars=3 Class=1 daily=332 conn=wye
New Load.Carga_IDSeta_3002 phases=3 bus1=X_3002.1.2.3.0 kv=0.38 kW=29.435719613054204 pf=0.9 status=variable model=1 CVRwatts=0.8 CVRvars=3 Class=1 daily=333 conn=wye
New Load.Carga_IDSeta_1067 phases=3 bus1=X_1067.1.2.3.0 kv=0.38 kW=2.7860686552408596 pf=0.9 status=variable model=1 CVRwatts=0.8 CVRvars=3 Class=1 daily=333 conn=wye
New Load.Carga_IDSeta_821 phases=3 bus1=X_821.1.2.3.0 kv=0.38 kW=37.987828631446384 pf=0.9 status=variable model=1 CVRwatts=0.8 CVRvars=3 Class=1 daily=333 conn=wye
New Load.Carga_IDSeta_210 phases=3 bus1=X_210.1.2.3.0 kv=0.38 kW=0.8516167130235002 pf=0.9 status=variable model=1 CVRwatts=0.8 CVRvars=3 Class=1 daily=333 conn=wye
New Load.Carga_IDSeta_784 phases=3 bus1=X_784.1.2.3.0 kv=0.38 kW=88.21558714959019 pf=0.9 status=variable model=1 CVRwatts=0.8 CVRvars=3 Class=1 daily=333 conn=wye
New Load.Carga_IDSeta_2960 phases=3 bus1=X_2960.1.2.3.0 kv=0.38 kW=1.1881426722021413 pf=0.9 status=variable model=1 CVRwatts=0.8 CVRvars=3 Class=1 daily=333 conn=wye
New Load.Carga_IDSeta_646 phases=3 bus1=X_646.1.2.3.0 kv=0.38 kW=0.6181089046138307 pf=0.9 status=variable model=1 CVRwatts=0.8 CVRvars=3 Class=1 daily=333 conn=wye
! New Load.Carga_IDSeta_2952 phases=3 bus1=X_2952.1.2.3.0 kv=0.38 kW=0.0 pf=0.9 status=variable model=1 CVRwatts=0.8 CVRvars=3 Class=1 daily=333 conn=wye
New Load.Carga_IDSeta_2959 phases=3 bus1=X_2959.1.2.3.0 kv=0.38 kW=17.87937238901488 pf=0.9 status=variable model=1 CVRwatts=0.8 CVRvars=3 Class=1 daily=333 conn=wye
New Load.Carga_IDSeta_2956 phases=3 bus1=X_2956.1.2.3.0 kv=0.38 kW=1.9779484947642585 pf=0.9 status=variable model=1 CVRwatts=0.8 CVRvars=3 Class=1 daily=333 conn=wye
New Load.Carga_IDSeta_2088 phases=3 bus1=X_2088.1.2.3.0 kv=0.38 kW=14.23671071207315 pf=0.9 status=variable model=1 CVRwatts=0.8 CVRvars=3 Class=1 daily=332 conn=wye
New Load.Carga_IDSeta_560 phases=3 bus1=X_560.1.2.3.0 kv=0.38 kW=47.247026316765265 pf=0.9 status=variable model=1 CVRwatts=0.8 CVRvars=3 Class=1 daily=332 conn=wye
New Load.Carga_IDSeta_1638 phases=3 bus1=X_1638.1.2.3.0 kv=0.38 kW=9.83303180883484 pf=0.9 status=variable model=1 CVRwatts=0.8 CVRvars=3 Class=1 daily=332 conn=wye
New Load.Carga_IDSeta_2396 phases=3 bus1=X_2396.1.2.3.0 kv=0.38 kW=1.369190204434024 pf=0.9 status=variable model=1 CVRwatts=0.8 CVRvars=3 Class=1 daily=332 conn=wye
New Load.Carga_IDSeta_1951 phases=3 bus1=X_1951.1.2.3.0 kv=0.38 kW=1.5565040266427204 pf=0.9 status=variable model=1 CVRwatts=0.8 CVRvars=3 Class=1 daily=332 conn=wye
New Load.Carga_IDSeta_570 phases=3 bus1=X_570.1.2.3.0 kv=0.38 kW=27.594057223214776 pf=0.9 status=variable model=1 CVRwatts=0.8 CVRvars=3 Class=1 daily=332 conn=wye
New Load.Carga_IDSeta_2940 phases=3 bus1=X_2940.1.2.3.0 kv=0.38 kW=96.44305875966805 pf=0.9 status=variable model=1 CVRwatts=0.8 CVRvars=3 Class=1 daily=335 conn=wye
New Load.Carga_IDSeta_1594 phases=3 bus1=X_1594.1.2.3.0 kv=0.38 kW=144.58953542220652 pf=0.9 status=variable model=1 CVRwatts=0.8 CVRvars=3 Class=1 daily=335 conn=wye
New Load.Carga_IDSeta_1595 phases=3 bus1=X_1595.1.2.3.0 kv=0.38 kW=185.22655549514093 pf=0.9 status=variable model=1 CVRwatts=0.8 CVRvars=3 Class=1 daily=335 conn=wye
New Load.Carga_IDSeta_2937 phases=3 bus1=X_2937.1.2.3.0 kv=0.38 kW=186.90760521959749 pf=0.9 status=variable model=1 CVRwatts=0.8 CVRvars=3 Class=1 daily=332 conn=wye
New Load.Carga_IDSeta_2947 phases=3 bus1=X_2947.1.2.3.0 kv=0.38 kW=10.439011976102673 pf=0.9 status=variable model=1 CVRwatts=0.8 CVRvars=3 Class=1 daily=332 conn=wye
New Load.Carga_IDSeta_593 phases=3 bus1=X_593.1.2.3.0 kv=0.38 kW=14.346628250299966 pf=0.9 status=variable model=1 CVRwatts=0.8 CVRvars=3 Class=1 daily=332 conn=wye
New Load.Carga_IDSeta_2948 phases=3 bus1=X_2948.1.2.3.0 kv=0.38 kW=7.768302538595135 pf=0.9 status=variable model=1 CVRwatts=0.8 CVRvars=3 Class=1 daily=332 conn=wye
New Load.Carga_IDSeta_594 phases=3 bus1=X_594.1.2.3.0 kv=0.38 kW=15.919404851623657 pf=0.9 status=variable model=1 CVRwatts=0.8 CVRvars=3 Class=1 daily=332 conn=wye
New Load.Carga_IDSeta_859 phases=3 bus1=X_859.1.2.3.0 kv=0.38 kW=8.08362250260406 pf=0.9 status=variable model=1 CVRwatts=0.8 CVRvars=3 Class=1 daily=332 conn=wye
New Load.Carga_IDSeta_2074 phases=3 bus1=X_2074.1.2.3.0 kv=0.38 kW=1.1445761045792278 pf=0.9 status=variable model=1 CVRwatts=0.8 CVRvars=3 Class=1 daily=332 conn=wye
New Load.Carga_IDSeta_596 phases=3 bus1=X_596.1.2.3.0 kv=0.38 kW=1.25210413110546 pf=0.9 status=variable model=1 CVRwatts=0.8 CVRvars=3 Class=1 daily=332 conn=wye
New Load.Carga_IDSeta_1874 phases=3 bus1=X_1874.1.2.3.0 kv=0.38 kW=38.68471293518342 pf=0.9 status=variable model=1 CVRwatts=0.8 CVRvars=3 Class=1 daily=332 conn=wye
New Load.Carga_IDSeta_956 phases=3 bus1=X_956.1.2.3.0 kv=0.38 kW=10.622315990400649 pf=0.9 status=variable model=1 CVRwatts=0.8 CVRvars=3 Class=1 daily=333 conn=wye
New Load.Carga_IDSeta_2258 phases=3 bus1=X_2258.1.2.3.0 kv=0.38 kW=11.272043545159898 pf=0.9 status=variable model=1 CVRwatts=0.8 CVRvars=3 Class=1 daily=332 conn=wye
New Load.Carga_IDSeta_2286 phases=3 bus1=X_2286.1.2.3.0 kv=0.38 kW=30.241660082577674 pf=0.9 status=variable model=1 CVRwatts=0.8 CVRvars=3 Class=1 daily=332 conn=wye
New Load.Carga_IDSeta_582 phases=3 bus1=X_582.1.2.3.0 kv=0.38 kW=7.2521680112692195 pf=0.9 status=variable model=1 CVRwatts=0.8 CVRvars=3 Class=1 daily=332 conn=wye
New Load.Carga_IDSeta_2962 phases=3 bus1=X_2962.1.2.3.0 kv=0.38 kW=0.8012522837586694 pf=0.9 status=variable model=1 CVRwatts=0.8 CVRvars=3 Class=1 daily=333 conn=wye
New Load.Carga_IDSeta_957 phases=3 bus1=X_957.1.2.3.0 kv=0.38 kW=16.23337126895064 pf=0.9 status=variable model=1 CVRwatts=0.8 CVRvars=3 Class=1 daily=333 conn=wye
New Load.Carga_IDSeta_958 phases=3 bus1=X_958.1.2.3.0 kv=0.38 kW=12.42453841287543 pf=0.9 status=variable model=1 CVRwatts=0.8 CVRvars=3 Class=1 daily=333 conn=wye
New Load.Carga_IDSeta_2949 phases=3 bus1=X_2949.1.2.3.0 kv=0.38 kW=0.17856479466621772 pf=0.9 status=variable model=1 CVRwatts=0.8 CVRvars=3 Class=1 daily=333 conn=wye
New Load.Carga_IDSeta_2966 phases=3 bus1=X_2966.1.2.3.0 kv=0.38 kW=0.26097931528139523 pf=0.9 status=variable model=1 CVRwatts=0.8 CVRvars=3 Class=1 daily=333 conn=wye
New Load.Carga_IDSeta_2968 phases=3 bus1=X_2968.1.2.3.0 kv=0.38 kW=9.561206144557843 pf=0.9 status=variable model=1 CVRwatts=0.8 CVRvars=3 Class=1 daily=333 conn=wye
New Load.Carga_IDSeta_520 phases=3 bus1=X_520.1.2.3.0 kv=0.38 kW=63.139916177992376 pf=0.9 status=variable model=1 CVRwatts=0.8 CVRvars=3 Class=1 daily=333 conn=wye
New Load.Carga_IDSeta_644 phases=3 bus1=X_644.1.2.3.0 kv=0.38 kW=4.358812423647162 pf=0.9 status=variable model=1 CVRwatts=0.8 CVRvars=3 Class=1 daily=333 conn=wye
New Load.Carga_IDSeta_1046 phases=3 bus1=X_1046.1.2.3.0 kv=0.38 kW=5.597502843966552 pf=0.9 status=variable model=1 CVRwatts=0.8 CVRvars=3 Class=1 daily=332 conn=wye
New Load.Carga_IDSeta_2992 phases=3 bus1=X_2992.1.2.3.0 kv=0.38 kW=25.164473411413056 pf=0.9 status=variable model=1 CVRwatts=0.8 CVRvars=3 Class=1 daily=332 conn=wye
New Load.Carga_IDSeta_524 phases=3 bus1=X_524.1.2.3.0 kv=0.38 kW=17.233564601593258 pf=0.9 status=variable model=1 CVRwatts=0.8 CVRvars=3 Class=1 daily=332 conn=wye
New Load.Carga_IDSeta_1106 phases=3 bus1=X_1106.1.2.3.0 kv=0.38 kW=20.0367007775471 pf=0.9 status=variable model=1 CVRwatts=0.8 CVRvars=3 Class=1 daily=332 conn=wye
New Load.Carga_IDSeta_2950 phases=3 bus1=X_2950.1.2.3.0 kv=0.38 kW=10.561474450757553 pf=0.9 status=variable model=1 CVRwatts=0.8 CVRvars=3 Class=1 daily=332 conn=wye
! New Load.Carga_IDSeta_1213 phases=3 bus1=X_1213.1.2.3.0 kv=0.38 kW=0.0 pf=0.9 status=variable model=1 CVRwatts=0.8 CVRvars=3 Class=1 daily=332 conn=wye
New Load.Carga_IDSeta_2643 phases=3 bus1=X_2643.1.2.3.0 kv=0.38 kW=31.228002722344296 pf=0.9 status=variable model=1 CVRwatts=0.8 CVRvars=3 Class=1 daily=332 conn=wye
New Load.Carga_IDSeta_2967 phases=3 bus1=X_2967.1.2.3.0 kv=0.38 kW=3.9235782123571856 pf=0.9 status=variable model=1 CVRwatts=0.8 CVRvars=3 Class=1 daily=332 conn=wye
New Load.Carga_IDSeta_2973 phases=3 bus1=X_2973.1.2.3.0 kv=0.38 kW=14.951174710547448 pf=0.9 status=variable model=1 CVRwatts=0.8 CVRvars=3 Class=1 daily=332 conn=wye
New Load.Carga_IDSeta_2963 phases=3 bus1=X_2963.1.2.3.0 kv=0.38 kW=0.6982341329896976 pf=0.9 status=variable model=1 CVRwatts=0.8 CVRvars=3 Class=1 daily=333 conn=wye
New Load.Carga_IDSeta_2989 phases=3 bus1=X_2989.1.2.3.0 kv=0.38 kW=4.402308976194061 pf=0.9 status=variable model=1 CVRwatts=0.8 CVRvars=3 Class=1 daily=333 conn=wye
New Load.Carga_IDSeta_968 phases=3 bus1=X_968.1.2.3.0 kv=0.38 kW=61.66437575806721 pf=0.9 status=variable model=1 CVRwatts=0.8 CVRvars=3 Class=1 daily=333 conn=wye
New Load.Carga_IDSeta_1002 phases=3 bus1=X_1002.1.2.3.0 kv=0.38 kW=41.19757122975045 pf=0.9 status=variable model=1 CVRwatts=0.8 CVRvars=3 Class=1 daily=332 conn=wye
New Load.Carga_IDSeta_2957 phases=3 bus1=X_2957.1.2.3.0 kv=0.38 kW=1.5412350468759954 pf=0.9 status=variable model=1 CVRwatts=0.8 CVRvars=3 Class=1 daily=332 conn=wye
New Load.Carga_IDSeta_2988 phases=3 bus1=X_2988.1.2.3.0 kv=0.38 kW=0.5710932964393224 pf=0.9 status=variable model=1 CVRwatts=0.8 CVRvars=3 Class=1 daily=332 conn=wye
New Load.Carga_IDSeta_833 phases=3 bus1=X_833.1.2.3.0 kv=0.38 kW=19.779565423447373 pf=0.9 status=variable model=1 CVRwatts=0.8 CVRvars=3 Class=1 daily=332 conn=wye
New Load.Carga_IDSeta_523 phases=3 bus1=X_523.1.2.3.0 kv=0.38 kW=10.470840271954437 pf=0.9 status=variable model=1 CVRwatts=0.8 CVRvars=3 Class=1 daily=332 conn=wye
New Load.Carga_IDSeta_1356 phases=3 bus1=X_1356.1.2.3.0 kv=0.38 kW=2.440385527104976 pf=0.9 status=variable model=1 CVRwatts=0.8 CVRvars=3 Class=1 daily=333 conn=wye
New Load.Carga_IDSeta_1382 phases=3 bus1=X_1382.1.2.3.0 kv=0.38 kW=2.339656668575315 pf=0.9 status=variable model=1 CVRwatts=0.8 CVRvars=3 Class=1 daily=333 conn=wye
New Load.Carga_IDSeta_635 phases=3 bus1=X_635.1.2.3.0 kv=0.38 kW=0.4444491763084267 pf=0.9 status=variable model=1 CVRwatts=0.8 CVRvars=3 Class=1 daily=332 conn=wye
New Load.Carga_IDSeta_1355 phases=3 bus1=X_1355.1.2.3.0 kv=0.38 kW=71.36754596131064 pf=0.9 status=variable model=1 CVRwatts=0.8 CVRvars=3 Class=1 daily=332 conn=wye
New Load.Carga_IDSeta_1243 phases=3 bus1=X_1243.1.2.3.0 kv=0.38 kW=3.479129036048759 pf=0.9 status=variable model=1 CVRwatts=0.8 CVRvars=3 Class=1 daily=332 conn=wye
New Load.Carga_IDSeta_1543 phases=3 bus1=X_1543.1.2.3.0 kv=0.38 kW=45.28609743479888 pf=0.9 status=variable model=1 CVRwatts=0.8 CVRvars=3 Class=1 daily=332 conn=wye
New Load.Carga_IDSeta_2 phases=3 bus1=X_2.1.2.3.0 kv=0.38 kW=7.721782723194264 pf=0.9 status=variable model=1 CVRwatts=0.8 CVRvars=3 Class=1 daily=333 conn=wye
New Load.Carga_IDSeta_2978 phases=3 bus1=X_2978.1.2.3.0 kv=0.38 kW=3.2599521487781296 pf=0.9 status=variable model=1 CVRwatts=0.8 CVRvars=3 Class=1 daily=333 conn=wye
New Load.Carga_IDSeta_2724 phases=3 bus1=X_2724.1.2.3.0 kv=0.38 kW=0.785227238083496 pf=0.9 status=variable model=1 CVRwatts=0.8 CVRvars=3 Class=1 daily=333 conn=wye
New Load.Carga_IDSeta_2683 phases=3 bus1=X_2683.1.2.3.0 kv=0.38 kW=81.1215327230902 pf=0.9 status=variable model=1 CVRwatts=0.8 CVRvars=3 Class=1 daily=332 conn=wye
New Load.Carga_IDSeta_1352 phases=3 bus1=X_1352.1.2.3.0 kv=0.38 kW=166.16994118468438 pf=0.9 status=variable model=1 CVRwatts=0.8 CVRvars=3 Class=1 daily=332 conn=wye
...